/*--------------------------------*- C++ -*----------------------------------*\
| =========                 |                                                 |
| \\      /  F ield         | OpenFOAM: The Open Source CFD Toolbox           |
|  \\    /   O peration     | Version:  2212                                  |
|   \\  /    A nd           | Website:  www.openfoam.com                      |
|    \\/     M anipulation  |                                                 |
\*---------------------------------------------------------------------------*/
FoamFile
{
    version     2.0;
    format      ascii;
    arch        "LSB;label=32;scalar=64";
    class       polyBoundaryMesh;
    location    "constant/polyMesh";
    object      boundary;
}
// * * * * * * * * * * * * * * * * * * * * * * * * * * * * * * * * * * * * * //

7
(
    inlet
    {
        type            patch;
        nFaces          0;
        startFace       260107;
    }
    outlet
    {
        type            patch;
        nFaces          300;
        startFace       260107;
    }
    sides
    {
        type            wall;
        inGroups        1(wall);
        nFaces          393;
        startFace       260407;
    }
    foil
    {
        type            wall;
        inGroups        1(wall);
        nFaces          94;
        startFace       260800;
    }
    frontAndBack
    {
        type            empty;
        inGroups        1(empty);
        nFaces          260812;
        startFace       260894;
    }
    procBoundary3to1
    {
        type            processor;
        inGroups        1(processor);
        nFaces          486;
        startFace       521706;
        matchTolerance  0.0001;
        transform       unknown;
        myProcNo        3;
        neighbProcNo    1;
    }
    procBoundary3to2
    {
        type            processor;
        inGroups        1(processor);
        nFaces          413;
        startFace       522192;
        matchTolerance  0.0001;
        transform       unknown;
        myProcNo        3;
        neighbProcNo    2;
    }
)

// ************************************************************************* //
