FoamFile
{
    version     2.0;
    format      ascii;
    class       dictionary;
    object      meshDict;
}

// * * * * * * * * * * * * * * * * * * * * * * * * * * * * * * * * * * * * * //

surfaceFile     "domain.fms";

maxCellSize     0.05;



objectRefinements
{

}

edgeMeshRefinement
{

}

localRefinement
{
	foil
	{
		additionalRefinementLevels 5;
		refinementThickness 0.1; //cm
	}
}

boundaryLayers
{
	patchBoundaryLayers
	{
		foil
		{
			nLayers 20;
			thicknessRatio 1.1;
			maxFirstLayerThickness 1;
			allowDiscontinuity 1;
		}
	}
}


// ************************************************************************* //