/*--------------------------------*- C++ -*----------------------------------*  =========                 |
  \      /  F ield         | OpenFOAM: The Open Source CFD Toolbox
   \    /   O peration     | Website:  https://openfoam.org
    \  /    A nd           | Version:  7
     \/     M anipulation  |
\*---------------------------------------------------------------------------*/																
FoamFile																
{																
    version     2.0;																
    format      ascii;																
    class       dictionary;																
    object      blockMeshDict;																
}																
// * * * * * * * * * * * * * * * * * * * * * * * * * * * * * * * * * * * * * //

															
scale 1;														
                                                                
geometry																
{																
}	

vertices
(
               															
	                     ( 0.0 0.0 0.0) // 0
   ( 1.0 0.0009449999999999833 0.0) // 1
                    ( 1.0 10.0 0.0) // 2
                   ( -10.0 0.0 0.0) // 3
  ( 15.0 0.0009449999999999833 0.0) // 4
                   ( 15.0 10.0 0.0) // 5
  ( 1.0 -0.0009449999999999833 0.0) // 6
 ( 15.0 -0.0009449999999999833 0.0) // 7
                   ( 1.0 -10.0 0.0) // 8
                  ( 15.0 -10.0 0.0) // 9
                    ( 0.0 0.0 1.0) // 10
  ( 1.0 0.0009449999999999833 1.0) // 11
                   ( 1.0 10.0 1.0) // 12
                  ( -10.0 0.0 1.0) // 13
 ( 15.0 0.0009449999999999833 1.0) // 14
                  ( 15.0 10.0 1.0) // 15
 ( 1.0 -0.0009449999999999833 1.0) // 16
( 15.0 -0.0009449999999999833 1.0) // 17
                  ( 1.0 -10.0 1.0) // 18
                 ( 15.0 -10.0 1.0) // 19 
        );
        
blocks																
(																
	hex	(0 1 2 3 10 11 12 13)	( 300 100 1) simpleGrading (1 1000 1)   //block	0
																													
	hex	(1 4 5 2 11 14 15 12)	( 500 100 1) simpleGrading (15 1000 1)  //block	1														
               											
	hex	(6 7 4 1 16 17 14 11)	( 500 10 1) simpleGrading (15 1 1)      //block	2
																																								
	hex	(8 9 7 6 18 19 17 16)	( 500 100 1) simpleGrading (15 0.001 1) //block	3	
	
	hex	(3 8 6 0 13 18 16 10)	( 300 100 1) simpleGrading (1 0.001 1)  //block	4								
);		

edges																
(																
	arc	2 3	(-7 7 0)									
	arc	12 13	(-7 7 1)
	arc	8 3	(-7 -7 0)									
	arc	18 13	(-7 -7 1)									
																
	spline	0 1													
	(					      

                                          ( 0.0 0.0 0 ) 
 ( 0.00024671981657042874 0.0020845774844125585 0 ) 
   ( 0.0009866357836101902 0.004140538316453791 0 ) 
  ( 0.0022190176933925554 0.0061670613519050795 0 ) 
    ( 0.003942649333762649 0.008163127516339552 0 ) 
    ( 0.006155829688391956 0.010127526080785883 0 ) 
     ( 0.008856374615475837 0.01205886329088435 0 ) 
    ( 0.012041619003218151 0.013955573245621482 0 ) 
    ( 0.015708419399974638 0.015815930894492746 0 ) 
       ( 0.01985315711646002 0.0176380669964937 0 ) 
      ( 0.02447174179695788 0.01941998486101597 0 ) 
    ( 0.029559615456007327 0.021159578669840435 0 ) 
      ( 0.03511175697658486 0.02285465316125405 0 ) 
     ( 0.04112268706534028 0.024502944442101618 0 ) 
     ( 0.047586473659998074 0.02610214168151931 0 ) 
      ( 0.05449673778358616 0.02764990943132704 0 ) 
     ( 0.06184665983971649 0.029143910312687614 0 ) 
     ( 0.06962898634270315 0.030581827806720616 0 ) 
      ( 0.07783603707587677 0.03196138888829496 0 ) 
     ( 0.08645971267103159 0.033280386247167594 0 ) 
       ( 0.0954915026015235 0.03453669984889287 0 ) 
      ( 0.10492249358113281 0.03572831759935727 0 ) 
      ( 0.11474337836040116 0.03685335489121051 0 ) 
      ( 0.12494446491176331 0.03791007282763913 0 ) 
      ( 0.13551568599440833 0.03889689493859755 0 ) 
       ( 0.1464466090894303 0.03981242222647512 0 ) 
       ( 0.1577264466954656 0.04065544640190513 0 ) 
      ( 0.16934406697465365 0.04142496119566333 0 ) 
      ( 0.18128800473841744 0.04212017165898396 0 ) 
       ( 0.1935464727622202 0.04274050139175796 0 ) 
      ( 0.20610737341813284 0.04328559766557666 0 ) 
      ( 0.21895831061373222 0.04375533443605182 0 ) 
       ( 0.2320866020255476 0.04414981326588738 0 ) 
     ( 0.24547929161498316 0.044469362206422766 0 ) 
       ( 0.2591231624143632 0.04471453271044494 0 ) 
        ( 0.273004749570484 0.04488609467263447 0 ) 
        ( 0.287110353632798 0.04498502971575366 0 ) 
      ( 0.30142605407311807 0.04501252286031251 0 ) 
        ( 0.315937723023497 0.04496995273271204 0 ) 
      ( 0.3306310392187286 0.044858880481547674 0 ) 
        ( 0.345491502129707 0.04468103758368649 0 ) 
       ( 0.3605044462736979 0.04443831273078076 0 ) 
      ( 0.3756550556873999 0.044132737992961045 0 ) 
      ( 0.3909283785485107 0.043766474459527256 0 ) 
      ( 0.40630934193137186 0.04334179755653024 0 ) 
      ( 0.4217827666821252 0.042861082238264084 0 ) 
      ( 0.43733338239870584 0.04232678824396477 0 ) 
      ( 0.4529458425008854 0.041741445602573556 0 ) 
        ( 0.468604739375493 0.04110764055745189 0 ) 
       ( 0.4842946195818704 0.04042800206964244 0 ) 
       ( 0.4999999991025516 0.03970518904290781 0 ) 
       ( 0.5157053786241185 0.03894187839661923 0 ) 
      ( 0.5313952588331522 0.038140754093912696 0 ) 
        ( 0.5470541557121839 0.0373044972127021 0 ) 
       ( 0.5626666158205507 0.03643577712646772 0 ) 
       ( 0.5782172315450762 0.03553724384056997 0 ) 
        ( 0.593690656305524 0.03461152150851722 0 ) 
       ( 0.6090716196998196 0.03366120313148445 0 ) 
       ( 0.6243449425740935 0.03268884642377697 0 ) 
       ( 0.6394955520026742 0.03169697080717635 0 ) 
      ( 0.6545084961632448 0.030688055478507097 0 ) 
      ( 0.6693689590924875 0.029664538477597036 0 ) 
      ( 0.6840622753076503 0.028628816667334092 0 ) 
      ( 0.6985739442796073 0.027583246523966418 0 ) 
      ( 0.7128896447431308 0.026530145624346652 0 ) 
       ( 0.7269952488302514 0.02547179470763577 0 ) 
      ( 0.7408768360127569 0.024410440182174926 0 ) 
       ( 0.7545207068400739 0.02334829694387683 0 ) 
      ( 0.7679133964589709 0.022287551370618438 0 ) 
      ( 0.7810416879017434 0.021230364357724938 0 ) 
      ( 0.7938926251297652 0.020178874262670815 0 ) 
       ( 0.8064535258195331 0.01913519963250225 0 ) 
      ( 0.8187119938785907 0.018101441595077986 0 ) 
      ( 0.8306559316789744 0.017079685804871503 0 ) 
      ( 0.8422735519961111 0.016072003845581093 0 ) 
       ( 0.853553389641386 0.015080454004935944 0 ) 
        ( 0.8644843127769004 0.0141070813516116 0 ) 
      ( 0.8750555339012502 0.013153917059813464 0 ) 
      ( 0.8852566204954886 0.012222976943561826 0 ) 
      ( 0.8950775053187623 0.011316259179723275 0 ) 
      ( 0.9045084963434626 0.010435741216073546 0 ) 
      ( 0.9135402863200868 0.009583375877845123 0 ) 
      ( 0.9221639619623694 0.008761086703005266 0 ) 
      ( 0.9303710127436202 0.007970762552635428 0 ) 
      ( 0.9381533392955854 0.007214251557963264 0 ) 
      ( 0.9455032614015477 0.006493354479572003 0 ) 
      ( 0.9524135255757721 0.005809817566841588 0 ) 
     ( 0.9588773122218202 0.0051653250165505675 0 ) 
      ( 0.9648882423626697 0.004561491138603977 0 ) 
      ( 0.9704403839359932 0.003999852343902795 0 ) 
     ( 0.9755282576483886 0.0034818590743205657 0 ) 
     ( 0.9801468423827797 0.0030088677975231184 0 ) 
     ( 0.9842915801536527 0.0025821331899230815 0 ) 
      ( 0.9879583806052372 0.002202800629395068 0 ) 
      ( 0.9911436250481941 0.001871899115534492 0 ) 
     ( 0.9938441700308243 0.0015903347292909533 0 ) 
     ( 0.9960573504412771 0.0013588847358633747 0 ) 
     ( 0.9977809821376927 0.0011781924249507781 0 ) 
     ( 0.9990133641036874 0.0010487627709858697 0 ) 
     ( 0.9997532801270506 0.0009709589830500797 0 ) 
                    ( 1.0 0.0009449999999999833 0 )  
    )
    spline 10 11
    (
                                          ( 0.0 0.0 1 ) 
 ( 0.00024671981657042874 0.0020845774844125585 1 ) 
   ( 0.0009866357836101902 0.004140538316453791 1 ) 
  ( 0.0022190176933925554 0.0061670613519050795 1 ) 
    ( 0.003942649333762649 0.008163127516339552 1 ) 
    ( 0.006155829688391956 0.010127526080785883 1 ) 
     ( 0.008856374615475837 0.01205886329088435 1 ) 
    ( 0.012041619003218151 0.013955573245621482 1 ) 
    ( 0.015708419399974638 0.015815930894492746 1 ) 
       ( 0.01985315711646002 0.0176380669964937 1 ) 
      ( 0.02447174179695788 0.01941998486101597 1 ) 
    ( 0.029559615456007327 0.021159578669840435 1 ) 
      ( 0.03511175697658486 0.02285465316125405 1 ) 
     ( 0.04112268706534028 0.024502944442101618 1 ) 
     ( 0.047586473659998074 0.02610214168151931 1 ) 
      ( 0.05449673778358616 0.02764990943132704 1 ) 
     ( 0.06184665983971649 0.029143910312687614 1 ) 
     ( 0.06962898634270315 0.030581827806720616 1 ) 
      ( 0.07783603707587677 0.03196138888829496 1 ) 
     ( 0.08645971267103159 0.033280386247167594 1 ) 
       ( 0.0954915026015235 0.03453669984889287 1 ) 
      ( 0.10492249358113281 0.03572831759935727 1 ) 
      ( 0.11474337836040116 0.03685335489121051 1 ) 
      ( 0.12494446491176331 0.03791007282763913 1 ) 
      ( 0.13551568599440833 0.03889689493859755 1 ) 
       ( 0.1464466090894303 0.03981242222647512 1 ) 
       ( 0.1577264466954656 0.04065544640190513 1 ) 
      ( 0.16934406697465365 0.04142496119566333 1 ) 
      ( 0.18128800473841744 0.04212017165898396 1 ) 
       ( 0.1935464727622202 0.04274050139175796 1 ) 
      ( 0.20610737341813284 0.04328559766557666 1 ) 
      ( 0.21895831061373222 0.04375533443605182 1 ) 
       ( 0.2320866020255476 0.04414981326588738 1 ) 
     ( 0.24547929161498316 0.044469362206422766 1 ) 
       ( 0.2591231624143632 0.04471453271044494 1 ) 
        ( 0.273004749570484 0.04488609467263447 1 ) 
        ( 0.287110353632798 0.04498502971575366 1 ) 
      ( 0.30142605407311807 0.04501252286031251 1 ) 
        ( 0.315937723023497 0.04496995273271204 1 ) 
      ( 0.3306310392187286 0.044858880481547674 1 ) 
        ( 0.345491502129707 0.04468103758368649 1 ) 
       ( 0.3605044462736979 0.04443831273078076 1 ) 
      ( 0.3756550556873999 0.044132737992961045 1 ) 
      ( 0.3909283785485107 0.043766474459527256 1 ) 
      ( 0.40630934193137186 0.04334179755653024 1 ) 
      ( 0.4217827666821252 0.042861082238264084 1 ) 
      ( 0.43733338239870584 0.04232678824396477 1 ) 
      ( 0.4529458425008854 0.041741445602573556 1 ) 
        ( 0.468604739375493 0.04110764055745189 1 ) 
       ( 0.4842946195818704 0.04042800206964244 1 ) 
       ( 0.4999999991025516 0.03970518904290781 1 ) 
       ( 0.5157053786241185 0.03894187839661923 1 ) 
      ( 0.5313952588331522 0.038140754093912696 1 ) 
        ( 0.5470541557121839 0.0373044972127021 1 ) 
       ( 0.5626666158205507 0.03643577712646772 1 ) 
       ( 0.5782172315450762 0.03553724384056997 1 ) 
        ( 0.593690656305524 0.03461152150851722 1 ) 
       ( 0.6090716196998196 0.03366120313148445 1 ) 
       ( 0.6243449425740935 0.03268884642377697 1 ) 
       ( 0.6394955520026742 0.03169697080717635 1 ) 
      ( 0.6545084961632448 0.030688055478507097 1 ) 
      ( 0.6693689590924875 0.029664538477597036 1 ) 
      ( 0.6840622753076503 0.028628816667334092 1 ) 
      ( 0.6985739442796073 0.027583246523966418 1 ) 
      ( 0.7128896447431308 0.026530145624346652 1 ) 
       ( 0.7269952488302514 0.02547179470763577 1 ) 
      ( 0.7408768360127569 0.024410440182174926 1 ) 
       ( 0.7545207068400739 0.02334829694387683 1 ) 
      ( 0.7679133964589709 0.022287551370618438 1 ) 
      ( 0.7810416879017434 0.021230364357724938 1 ) 
      ( 0.7938926251297652 0.020178874262670815 1 ) 
       ( 0.8064535258195331 0.01913519963250225 1 ) 
      ( 0.8187119938785907 0.018101441595077986 1 ) 
      ( 0.8306559316789744 0.017079685804871503 1 ) 
      ( 0.8422735519961111 0.016072003845581093 1 ) 
       ( 0.853553389641386 0.015080454004935944 1 ) 
        ( 0.8644843127769004 0.0141070813516116 1 ) 
      ( 0.8750555339012502 0.013153917059813464 1 ) 
      ( 0.8852566204954886 0.012222976943561826 1 ) 
      ( 0.8950775053187623 0.011316259179723275 1 ) 
      ( 0.9045084963434626 0.010435741216073546 1 ) 
      ( 0.9135402863200868 0.009583375877845123 1 ) 
      ( 0.9221639619623694 0.008761086703005266 1 ) 
      ( 0.9303710127436202 0.007970762552635428 1 ) 
      ( 0.9381533392955854 0.007214251557963264 1 ) 
      ( 0.9455032614015477 0.006493354479572003 1 ) 
      ( 0.9524135255757721 0.005809817566841588 1 ) 
     ( 0.9588773122218202 0.0051653250165505675 1 ) 
      ( 0.9648882423626697 0.004561491138603977 1 ) 
      ( 0.9704403839359932 0.003999852343902795 1 ) 
     ( 0.9755282576483886 0.0034818590743205657 1 ) 
     ( 0.9801468423827797 0.0030088677975231184 1 ) 
     ( 0.9842915801536527 0.0025821331899230815 1 ) 
      ( 0.9879583806052372 0.002202800629395068 1 ) 
      ( 0.9911436250481941 0.001871899115534492 1 ) 
     ( 0.9938441700308243 0.0015903347292909533 1 ) 
     ( 0.9960573504412771 0.0013588847358633747 1 ) 
     ( 0.9977809821376927 0.0011781924249507781 1 ) 
     ( 0.9990133641036874 0.0010487627709858697 1 ) 
     ( 0.9997532801270506 0.0009709589830500797 1 ) 
                    ( 1.0 0.0009449999999999833 1 )  
	)																																																													
	spline	0	6													
	(
                                          ( 0.0 -0.0 0 ) 
 ( 0.00024671981657042874 -0.0020845774844125585 0 ) 
   ( 0.0009866357836101902 -0.004140538316453791 0 ) 
  ( 0.0022190176933925554 -0.0061670613519050795 0 ) 
    ( 0.003942649333762649 -0.008163127516339552 0 ) 
    ( 0.006155829688391956 -0.010127526080785883 0 ) 
     ( 0.008856374615475837 -0.01205886329088435 0 ) 
    ( 0.012041619003218151 -0.013955573245621482 0 ) 
    ( 0.015708419399974638 -0.015815930894492746 0 ) 
       ( 0.01985315711646002 -0.0176380669964937 0 ) 
      ( 0.02447174179695788 -0.01941998486101597 0 ) 
    ( 0.029559615456007327 -0.021159578669840435 0 ) 
      ( 0.03511175697658486 -0.02285465316125405 0 ) 
     ( 0.04112268706534028 -0.024502944442101618 0 ) 
     ( 0.047586473659998074 -0.02610214168151931 0 ) 
      ( 0.05449673778358616 -0.02764990943132704 0 ) 
     ( 0.06184665983971649 -0.029143910312687614 0 ) 
     ( 0.06962898634270315 -0.030581827806720616 0 ) 
      ( 0.07783603707587677 -0.03196138888829496 0 ) 
     ( 0.08645971267103159 -0.033280386247167594 0 ) 
       ( 0.0954915026015235 -0.03453669984889287 0 ) 
      ( 0.10492249358113281 -0.03572831759935727 0 ) 
      ( 0.11474337836040116 -0.03685335489121051 0 ) 
      ( 0.12494446491176331 -0.03791007282763913 0 ) 
      ( 0.13551568599440833 -0.03889689493859755 0 ) 
       ( 0.1464466090894303 -0.03981242222647512 0 ) 
       ( 0.1577264466954656 -0.04065544640190513 0 ) 
      ( 0.16934406697465365 -0.04142496119566333 0 ) 
      ( 0.18128800473841744 -0.04212017165898396 0 ) 
       ( 0.1935464727622202 -0.04274050139175796 0 ) 
      ( 0.20610737341813284 -0.04328559766557666 0 ) 
      ( 0.21895831061373222 -0.04375533443605182 0 ) 
       ( 0.2320866020255476 -0.04414981326588738 0 ) 
     ( 0.24547929161498316 -0.044469362206422766 0 ) 
       ( 0.2591231624143632 -0.04471453271044494 0 ) 
        ( 0.273004749570484 -0.04488609467263447 0 ) 
        ( 0.287110353632798 -0.04498502971575366 0 ) 
      ( 0.30142605407311807 -0.04501252286031251 0 ) 
        ( 0.315937723023497 -0.04496995273271204 0 ) 
      ( 0.3306310392187286 -0.044858880481547674 0 ) 
        ( 0.345491502129707 -0.04468103758368649 0 ) 
       ( 0.3605044462736979 -0.04443831273078076 0 ) 
      ( 0.3756550556873999 -0.044132737992961045 0 ) 
      ( 0.3909283785485107 -0.043766474459527256 0 ) 
      ( 0.40630934193137186 -0.04334179755653024 0 ) 
      ( 0.4217827666821252 -0.042861082238264084 0 ) 
      ( 0.43733338239870584 -0.04232678824396477 0 ) 
      ( 0.4529458425008854 -0.041741445602573556 0 ) 
        ( 0.468604739375493 -0.04110764055745189 0 ) 
       ( 0.4842946195818704 -0.04042800206964244 0 ) 
       ( 0.4999999991025516 -0.03970518904290781 0 ) 
       ( 0.5157053786241185 -0.03894187839661923 0 ) 
      ( 0.5313952588331522 -0.038140754093912696 0 ) 
        ( 0.5470541557121839 -0.0373044972127021 0 ) 
       ( 0.5626666158205507 -0.03643577712646772 0 ) 
       ( 0.5782172315450762 -0.03553724384056997 0 ) 
        ( 0.593690656305524 -0.03461152150851722 0 ) 
       ( 0.6090716196998196 -0.03366120313148445 0 ) 
       ( 0.6243449425740935 -0.03268884642377697 0 ) 
       ( 0.6394955520026742 -0.03169697080717635 0 ) 
      ( 0.6545084961632448 -0.030688055478507097 0 ) 
      ( 0.6693689590924875 -0.029664538477597036 0 ) 
      ( 0.6840622753076503 -0.028628816667334092 0 ) 
      ( 0.6985739442796073 -0.027583246523966418 0 ) 
      ( 0.7128896447431308 -0.026530145624346652 0 ) 
       ( 0.7269952488302514 -0.02547179470763577 0 ) 
      ( 0.7408768360127569 -0.024410440182174926 0 ) 
       ( 0.7545207068400739 -0.02334829694387683 0 ) 
      ( 0.7679133964589709 -0.022287551370618438 0 ) 
      ( 0.7810416879017434 -0.021230364357724938 0 ) 
      ( 0.7938926251297652 -0.020178874262670815 0 ) 
       ( 0.8064535258195331 -0.01913519963250225 0 ) 
      ( 0.8187119938785907 -0.018101441595077986 0 ) 
      ( 0.8306559316789744 -0.017079685804871503 0 ) 
      ( 0.8422735519961111 -0.016072003845581093 0 ) 
       ( 0.853553389641386 -0.015080454004935944 0 ) 
        ( 0.8644843127769004 -0.0141070813516116 0 ) 
      ( 0.8750555339012502 -0.013153917059813464 0 ) 
      ( 0.8852566204954886 -0.012222976943561826 0 ) 
      ( 0.8950775053187623 -0.011316259179723275 0 ) 
      ( 0.9045084963434626 -0.010435741216073546 0 ) 
      ( 0.9135402863200868 -0.009583375877845123 0 ) 
      ( 0.9221639619623694 -0.008761086703005266 0 ) 
      ( 0.9303710127436202 -0.007970762552635428 0 ) 
      ( 0.9381533392955854 -0.007214251557963264 0 ) 
      ( 0.9455032614015477 -0.006493354479572003 0 ) 
      ( 0.9524135255757721 -0.005809817566841588 0 ) 
     ( 0.9588773122218202 -0.0051653250165505675 0 ) 
      ( 0.9648882423626697 -0.004561491138603977 0 ) 
      ( 0.9704403839359932 -0.003999852343902795 0 ) 
     ( 0.9755282576483886 -0.0034818590743205657 0 ) 
     ( 0.9801468423827797 -0.0030088677975231184 0 ) 
     ( 0.9842915801536527 -0.0025821331899230815 0 ) 
      ( 0.9879583806052372 -0.002202800629395068 0 ) 
      ( 0.9911436250481941 -0.001871899115534492 0 ) 
     ( 0.9938441700308243 -0.0015903347292909533 0 ) 
     ( 0.9960573504412771 -0.0013588847358633747 0 ) 
     ( 0.9977809821376927 -0.0011781924249507781 0 ) 
     ( 0.9990133641036874 -0.0010487627709858697 0 ) 
     ( 0.9997532801270506 -0.0009709589830500797 0 ) 
                    ( 1.0 -0.0009449999999999833 0 )  
    )
    spline 10 16
    (
                                          ( 0.0 -0.0 1 ) 
 ( 0.00024671981657042874 -0.0020845774844125585 1 ) 
   ( 0.0009866357836101902 -0.004140538316453791 1 ) 
  ( 0.0022190176933925554 -0.0061670613519050795 1 ) 
    ( 0.003942649333762649 -0.008163127516339552 1 ) 
    ( 0.006155829688391956 -0.010127526080785883 1 ) 
     ( 0.008856374615475837 -0.01205886329088435 1 ) 
    ( 0.012041619003218151 -0.013955573245621482 1 ) 
    ( 0.015708419399974638 -0.015815930894492746 1 ) 
       ( 0.01985315711646002 -0.0176380669964937 1 ) 
      ( 0.02447174179695788 -0.01941998486101597 1 ) 
    ( 0.029559615456007327 -0.021159578669840435 1 ) 
      ( 0.03511175697658486 -0.02285465316125405 1 ) 
     ( 0.04112268706534028 -0.024502944442101618 1 ) 
     ( 0.047586473659998074 -0.02610214168151931 1 ) 
      ( 0.05449673778358616 -0.02764990943132704 1 ) 
     ( 0.06184665983971649 -0.029143910312687614 1 ) 
     ( 0.06962898634270315 -0.030581827806720616 1 ) 
      ( 0.07783603707587677 -0.03196138888829496 1 ) 
     ( 0.08645971267103159 -0.033280386247167594 1 ) 
       ( 0.0954915026015235 -0.03453669984889287 1 ) 
      ( 0.10492249358113281 -0.03572831759935727 1 ) 
      ( 0.11474337836040116 -0.03685335489121051 1 ) 
      ( 0.12494446491176331 -0.03791007282763913 1 ) 
      ( 0.13551568599440833 -0.03889689493859755 1 ) 
       ( 0.1464466090894303 -0.03981242222647512 1 ) 
       ( 0.1577264466954656 -0.04065544640190513 1 ) 
      ( 0.16934406697465365 -0.04142496119566333 1 ) 
      ( 0.18128800473841744 -0.04212017165898396 1 ) 
       ( 0.1935464727622202 -0.04274050139175796 1 ) 
      ( 0.20610737341813284 -0.04328559766557666 1 ) 
      ( 0.21895831061373222 -0.04375533443605182 1 ) 
       ( 0.2320866020255476 -0.04414981326588738 1 ) 
     ( 0.24547929161498316 -0.044469362206422766 1 ) 
       ( 0.2591231624143632 -0.04471453271044494 1 ) 
        ( 0.273004749570484 -0.04488609467263447 1 ) 
        ( 0.287110353632798 -0.04498502971575366 1 ) 
      ( 0.30142605407311807 -0.04501252286031251 1 ) 
        ( 0.315937723023497 -0.04496995273271204 1 ) 
      ( 0.3306310392187286 -0.044858880481547674 1 ) 
        ( 0.345491502129707 -0.04468103758368649 1 ) 
       ( 0.3605044462736979 -0.04443831273078076 1 ) 
      ( 0.3756550556873999 -0.044132737992961045 1 ) 
      ( 0.3909283785485107 -0.043766474459527256 1 ) 
      ( 0.40630934193137186 -0.04334179755653024 1 ) 
      ( 0.4217827666821252 -0.042861082238264084 1 ) 
      ( 0.43733338239870584 -0.04232678824396477 1 ) 
      ( 0.4529458425008854 -0.041741445602573556 1 ) 
        ( 0.468604739375493 -0.04110764055745189 1 ) 
       ( 0.4842946195818704 -0.04042800206964244 1 ) 
       ( 0.4999999991025516 -0.03970518904290781 1 ) 
       ( 0.5157053786241185 -0.03894187839661923 1 ) 
      ( 0.5313952588331522 -0.038140754093912696 1 ) 
        ( 0.5470541557121839 -0.0373044972127021 1 ) 
       ( 0.5626666158205507 -0.03643577712646772 1 ) 
       ( 0.5782172315450762 -0.03553724384056997 1 ) 
        ( 0.593690656305524 -0.03461152150851722 1 ) 
       ( 0.6090716196998196 -0.03366120313148445 1 ) 
       ( 0.6243449425740935 -0.03268884642377697 1 ) 
       ( 0.6394955520026742 -0.03169697080717635 1 ) 
      ( 0.6545084961632448 -0.030688055478507097 1 ) 
      ( 0.6693689590924875 -0.029664538477597036 1 ) 
      ( 0.6840622753076503 -0.028628816667334092 1 ) 
      ( 0.6985739442796073 -0.027583246523966418 1 ) 
      ( 0.7128896447431308 -0.026530145624346652 1 ) 
       ( 0.7269952488302514 -0.02547179470763577 1 ) 
      ( 0.7408768360127569 -0.024410440182174926 1 ) 
       ( 0.7545207068400739 -0.02334829694387683 1 ) 
      ( 0.7679133964589709 -0.022287551370618438 1 ) 
      ( 0.7810416879017434 -0.021230364357724938 1 ) 
      ( 0.7938926251297652 -0.020178874262670815 1 ) 
       ( 0.8064535258195331 -0.01913519963250225 1 ) 
      ( 0.8187119938785907 -0.018101441595077986 1 ) 
      ( 0.8306559316789744 -0.017079685804871503 1 ) 
      ( 0.8422735519961111 -0.016072003845581093 1 ) 
       ( 0.853553389641386 -0.015080454004935944 1 ) 
        ( 0.8644843127769004 -0.0141070813516116 1 ) 
      ( 0.8750555339012502 -0.013153917059813464 1 ) 
      ( 0.8852566204954886 -0.012222976943561826 1 ) 
      ( 0.8950775053187623 -0.011316259179723275 1 ) 
      ( 0.9045084963434626 -0.010435741216073546 1 ) 
      ( 0.9135402863200868 -0.009583375877845123 1 ) 
      ( 0.9221639619623694 -0.008761086703005266 1 ) 
      ( 0.9303710127436202 -0.007970762552635428 1 ) 
      ( 0.9381533392955854 -0.007214251557963264 1 ) 
      ( 0.9455032614015477 -0.006493354479572003 1 ) 
      ( 0.9524135255757721 -0.005809817566841588 1 ) 
     ( 0.9588773122218202 -0.0051653250165505675 1 ) 
      ( 0.9648882423626697 -0.004561491138603977 1 ) 
      ( 0.9704403839359932 -0.003999852343902795 1 ) 
     ( 0.9755282576483886 -0.0034818590743205657 1 ) 
     ( 0.9801468423827797 -0.0030088677975231184 1 ) 
     ( 0.9842915801536527 -0.0025821331899230815 1 ) 
      ( 0.9879583806052372 -0.002202800629395068 1 ) 
      ( 0.9911436250481941 -0.001871899115534492 1 ) 
     ( 0.9938441700308243 -0.0015903347292909533 1 ) 
     ( 0.9960573504412771 -0.0013588847358633747 1 ) 
     ( 0.9977809821376927 -0.0011781924249507781 1 ) 
     ( 0.9990133641036874 -0.0010487627709858697 1 ) 
     ( 0.9997532801270506 -0.0009709589830500797 1 ) 
                    ( 1.0 -0.0009449999999999833 1 )  
							
    )															
                                                                    
                                                                    
    );																
                                                                    
    faces																
    (																
                                                                    
    );																
                                                                    
    faces																
    (																
                                                                    
    );																
                                                                    
                                                                    
    defaultPatch																
    {																
        name frontAndBack;																
        type empty;																
    }		
                                                                                                                                
    boundary																
    (																
        inlet              																
            {																
            type patch;    																
            faces																
            (																
                (3 13 12 2)
                (8 18 13 3)
                (5 2 12 15)
                (8 9 19 18)															
            );																
            } 
        outlet              																
            {																
            type patch;    																
            faces																
            (																
                (4 5 15 14)
                (7 4 14 17)
                (7 17 19 9)  															
            );																
            }	

        foil              																
            {																
            type wall;    																
            faces																
            (																
                (0 1 11 10)
                (0 6 16 10)
                (6 1 11 16)															
            );																
            }	
                                                                
                                                                        
    );	
    // ************************************************************************* //																
                                                                    			               	
    