/*--------------------------------*- C++ -*----------------------------------*  =========                 |
  \      /  F ield         | OpenFOAM: The Open Source CFD Toolbox
   \    /   O peration     | Website:  https://openfoam.org
    \  /    A nd           | Version:  7
     \/     M anipulation  |
\*---------------------------------------------------------------------------*/																
FoamFile																
{																
    version     2.0;																
    format      ascii;																
    class       dictionary;																
    object      blockMeshDict;																
}																
// * * * * * * * * * * * * * * * * * * * * * * * * * * * * * * * * * * * * * //

															
scale 1;														
                                                                
geometry																
{																
}	

vertices
(
               															
	                     ( 0.0 0.0 0.0) // 0
   ( 1.0 0.0017849999999999685 0.0) // 1
                    ( 1.0 10.0 0.0) // 2
                   ( -10.0 0.0 0.0) // 3
  ( 15.0 0.0017849999999999685 0.0) // 4
                   ( 15.0 10.0 0.0) // 5
  ( 1.0 -0.0017849999999999685 0.0) // 6
 ( 15.0 -0.0017849999999999685 0.0) // 7
                   ( 1.0 -10.0 0.0) // 8
                  ( 15.0 -10.0 0.0) // 9
                    ( 0.0 0.0 1.0) // 10
  ( 1.0 0.0017849999999999685 1.0) // 11
                   ( 1.0 10.0 1.0) // 12
                  ( -10.0 0.0 1.0) // 13
 ( 15.0 0.0017849999999999685 1.0) // 14
                  ( 15.0 10.0 1.0) // 15
 ( 1.0 -0.0017849999999999685 1.0) // 16
( 15.0 -0.0017849999999999685 1.0) // 17
                  ( 1.0 -10.0 1.0) // 18
                 ( 15.0 -10.0 1.0) // 19 
        );
        
blocks																
(																
	hex	(0 1 2 3 10 11 12 13)	( 300 100 1) simpleGrading (1 1000 1)   //block	0
																													
	hex	(1 4 5 2 11 14 15 12)	( 500 100 1) simpleGrading (15 1000 1)  //block	1														
               											
	hex	(6 7 4 1 16 17 14 11)	( 500 10 1) simpleGrading (15 1 1)      //block	2
																																								
	hex	(8 9 7 6 18 19 17 16)	( 500 100 1) simpleGrading (15 0.001 1) //block	3	
	
	hex	(3 8 6 0 13 18 16 10)	( 300 100 1) simpleGrading (1 0.001 1)  //block	4								
);		

edges																
(																
	arc	2 3	(-7 7 0)									
	arc	12 13	(-7 7 1)
	arc	8 3	(-7 -7 0)									
	arc	18 13	(-7 -7 1)									
																
	spline	0 1													
	(					      

                                          ( 0.0 0.0 0 ) 
 ( 0.00024671981657042874 0.0039375352483348326 0 ) 
   ( 0.0009866357836101902 0.007821016819968272 0 ) 
   ( 0.0022190176933925554 0.011648893664709595 0 ) 
    ( 0.003942649333762649 0.015419240864196933 0 ) 
     ( 0.006155829688391956 0.01912977148592889 0 ) 
    ( 0.008856374615475837 0.022777852882781554 0 ) 
    ( 0.012041619003218151 0.026360527241729468 0 ) 
    ( 0.015708419399974638 0.029874536134041858 0 ) 
      ( 0.01985315711646002 0.03331634877115477 0 ) 
     ( 0.02447174179695788 0.036682193626363505 0 ) 
    ( 0.029559615456007327 0.039968093043031935 0 ) 
     ( 0.03511175697658486 0.043169900415702095 0 ) 
     ( 0.04112268706534028 0.046283339501747504 0 ) 
     ( 0.047586473659998074 0.04930404539842537 0 ) 
      ( 0.05449673778358616 0.05222760670361775 0 ) 
      ( 0.06184665983971649 0.05504960836840994 0 ) 
      ( 0.06962898634270315 0.05776567474602783 0 ) 
      ( 0.07783603707587677 0.06037151234455715 0 ) 
      ( 0.08645971267103159 0.06286295180020546 0 ) 
       ( 0.0954915026015235 0.06523598860346431 0 ) 
      ( 0.10492249358113281 0.06748682213211929 0 ) 
      ( 0.11474337836040116 0.06961189257228653 0 ) 
      ( 0.12494446491176331 0.07160791534109613 0 ) 
      ( 0.13551568599440833 0.07347191266179538 0 ) 
       ( 0.1464466090894303 0.07520124198334191 0 ) 
       ( 0.1577264466954656 0.07679362098137636 0 ) 
      ( 0.16934406697465365 0.07824714892514184 0 ) 
      ( 0.18128800473841744 0.07956032424474749 0 ) 
       ( 0.1935464727622202 0.08073205818443172 0 ) 
      ( 0.20610737341813284 0.08176168447942259 0 ) 
      ( 0.21895831061373222 0.08264896504587567 0 ) 
       ( 0.2320866020255476 0.08339409172445394 0 ) 
      ( 0.24547929161498316 0.08399768416768745 0 ) 
       ( 0.2591231624143632 0.08446078400861823 0 ) 
          ( 0.273004749570484 0.084784845492754 0 ) 
        ( 0.287110353632798 0.08497172279642358 0 ) 
      ( 0.30142605407311807 0.08502365429170142 0 ) 
         ( 0.315937723023497 0.0849432440506783 0 ) 
       ( 0.3306310392187286 0.08473344090959006 0 ) 
        ( 0.345491502129707 0.08439751543585226 0 ) 
       ( 0.3605044462736979 0.08393903515814144 0 ) 
       ( 0.3756550556873999 0.08336183843114864 0 ) 
       ( 0.3909283785485107 0.08267000731244038 0 ) 
      ( 0.40630934193137186 0.08186783982900157 0 ) 
       ( 0.4217827666821252 0.08095982200560994 0 ) 
      ( 0.43733338239870584 0.07995060001637791 0 ) 
       ( 0.4529458425008854 0.07884495280486116 0 ) 
        ( 0.468604739375493 0.07764776549740914 0 ) 
       ( 0.4842946195818704 0.07636400390932462 0 ) 
       ( 0.4999999991025516 0.07499869041438142 0 ) 
       ( 0.5157053786241185 0.07355688141583633 0 ) 
        ( 0.5313952588331522 0.0720436466218351 0 ) 
       ( 0.5470541557121839 0.07046405029065952 0 ) 
       ( 0.5626666158205507 0.06882313457221681 0 ) 
       ( 0.5782172315450762 0.06712590503218772 0 ) 
        ( 0.593690656305524 0.06537731840497699 0 ) 
       ( 0.6090716196998196 0.06358227258169286 0 ) 
       ( 0.6243449425740935 0.06174559880046762 0 ) 
       ( 0.6394955520026742 0.05987205596911089 0 ) 
       ( 0.6545084961632448 0.05796632701495785 0 ) 
      ( 0.6693689590924875 0.056033017124349965 0 ) 
      ( 0.6840622753076503 0.054076653704964395 0 ) 
       ( 0.6985739442796073 0.05210168787860324 0 ) 
       ( 0.7128896447431308 0.05011249729043257 0 ) 
      ( 0.7269952488302514 0.048113390003312016 0 ) 
       ( 0.7408768360127569 0.04610860923299708 0 ) 
       ( 0.7545207068400739 0.04410233867176734 0 ) 
       ( 0.7679133964589709 0.04209870814450149 0 ) 
      ( 0.7810416879017434 0.040101799342369335 0 ) 
       ( 0.7938926251297652 0.03811565138504487 0 ) 
       ( 0.8064535258195331 0.03614426597250425 0 ) 
       ( 0.8187119938785907 0.03419161190181398 0 ) 
       ( 0.8306559316789744 0.03226162874253506 0 ) 
       ( 0.8422735519961111 0.03035822948609762 0 ) 
       ( 0.853553389641386 0.028485302009323452 0 ) 
      ( 0.8644843127769004 0.026646709219710803 0 ) 
      ( 0.8750555339012502 0.024846287779647657 0 ) 
      ( 0.8852566204954886 0.023087845337839006 0 ) 
      ( 0.8950775053187623 0.021375156228366186 0 ) 
      ( 0.9045084963434626 0.019711955630361145 0 ) 
      ( 0.9135402863200868 0.018101932213707456 0 ) 
      ( 0.9221639619623694 0.016548719327898836 0 ) 
      ( 0.9303710127436202 0.015055884821644697 0 ) 
      ( 0.9381533392955854 0.013626919609486166 0 ) 
      ( 0.9455032614015477 0.012265225128080452 0 ) 
      ( 0.9524135255757721 0.010974099848478554 0 ) 
      ( 0.9588773122218202 0.009756725031262185 0 ) 
       ( 0.9648882423626697 0.00861614992847418 0 ) 
      ( 0.9704403839359932 0.007555276649594169 0 ) 
      ( 0.9755282576483886 0.006576844918161069 0 ) 
      ( 0.9801468423827797 0.005683416950877002 0 ) 
      ( 0.9842915801536527 0.004877362692076932 0 ) 
      ( 0.9879583806052372 0.004160845633301796 0 ) 
      ( 0.9911436250481941 0.003535809440454041 0 ) 
      ( 0.9938441700308243 0.003003965599771801 0 ) 
     ( 0.9960573504412771 0.0025667822788530414 0 ) 
      ( 0.9977809821376927 0.002225474580462581 0 ) 
      ( 0.9990133641036874 0.001980996345195532 0 ) 
     ( 0.9997532801270506 0.0018340336346501507 0 ) 
                    ( 1.0 0.0017849999999999685 0 )  
    )
    spline 10 11
    (
                                          ( 0.0 0.0 1 ) 
 ( 0.00024671981657042874 0.0039375352483348326 1 ) 
   ( 0.0009866357836101902 0.007821016819968272 1 ) 
   ( 0.0022190176933925554 0.011648893664709595 1 ) 
    ( 0.003942649333762649 0.015419240864196933 1 ) 
     ( 0.006155829688391956 0.01912977148592889 1 ) 
    ( 0.008856374615475837 0.022777852882781554 1 ) 
    ( 0.012041619003218151 0.026360527241729468 1 ) 
    ( 0.015708419399974638 0.029874536134041858 1 ) 
      ( 0.01985315711646002 0.03331634877115477 1 ) 
     ( 0.02447174179695788 0.036682193626363505 1 ) 
    ( 0.029559615456007327 0.039968093043031935 1 ) 
     ( 0.03511175697658486 0.043169900415702095 1 ) 
     ( 0.04112268706534028 0.046283339501747504 1 ) 
     ( 0.047586473659998074 0.04930404539842537 1 ) 
      ( 0.05449673778358616 0.05222760670361775 1 ) 
      ( 0.06184665983971649 0.05504960836840994 1 ) 
      ( 0.06962898634270315 0.05776567474602783 1 ) 
      ( 0.07783603707587677 0.06037151234455715 1 ) 
      ( 0.08645971267103159 0.06286295180020546 1 ) 
       ( 0.0954915026015235 0.06523598860346431 1 ) 
      ( 0.10492249358113281 0.06748682213211929 1 ) 
      ( 0.11474337836040116 0.06961189257228653 1 ) 
      ( 0.12494446491176331 0.07160791534109613 1 ) 
      ( 0.13551568599440833 0.07347191266179538 1 ) 
       ( 0.1464466090894303 0.07520124198334191 1 ) 
       ( 0.1577264466954656 0.07679362098137636 1 ) 
      ( 0.16934406697465365 0.07824714892514184 1 ) 
      ( 0.18128800473841744 0.07956032424474749 1 ) 
       ( 0.1935464727622202 0.08073205818443172 1 ) 
      ( 0.20610737341813284 0.08176168447942259 1 ) 
      ( 0.21895831061373222 0.08264896504587567 1 ) 
       ( 0.2320866020255476 0.08339409172445394 1 ) 
      ( 0.24547929161498316 0.08399768416768745 1 ) 
       ( 0.2591231624143632 0.08446078400861823 1 ) 
          ( 0.273004749570484 0.084784845492754 1 ) 
        ( 0.287110353632798 0.08497172279642358 1 ) 
      ( 0.30142605407311807 0.08502365429170142 1 ) 
         ( 0.315937723023497 0.0849432440506783 1 ) 
       ( 0.3306310392187286 0.08473344090959006 1 ) 
        ( 0.345491502129707 0.08439751543585226 1 ) 
       ( 0.3605044462736979 0.08393903515814144 1 ) 
       ( 0.3756550556873999 0.08336183843114864 1 ) 
       ( 0.3909283785485107 0.08267000731244038 1 ) 
      ( 0.40630934193137186 0.08186783982900157 1 ) 
       ( 0.4217827666821252 0.08095982200560994 1 ) 
      ( 0.43733338239870584 0.07995060001637791 1 ) 
       ( 0.4529458425008854 0.07884495280486116 1 ) 
        ( 0.468604739375493 0.07764776549740914 1 ) 
       ( 0.4842946195818704 0.07636400390932462 1 ) 
       ( 0.4999999991025516 0.07499869041438142 1 ) 
       ( 0.5157053786241185 0.07355688141583633 1 ) 
        ( 0.5313952588331522 0.0720436466218351 1 ) 
       ( 0.5470541557121839 0.07046405029065952 1 ) 
       ( 0.5626666158205507 0.06882313457221681 1 ) 
       ( 0.5782172315450762 0.06712590503218772 1 ) 
        ( 0.593690656305524 0.06537731840497699 1 ) 
       ( 0.6090716196998196 0.06358227258169286 1 ) 
       ( 0.6243449425740935 0.06174559880046762 1 ) 
       ( 0.6394955520026742 0.05987205596911089 1 ) 
       ( 0.6545084961632448 0.05796632701495785 1 ) 
      ( 0.6693689590924875 0.056033017124349965 1 ) 
      ( 0.6840622753076503 0.054076653704964395 1 ) 
       ( 0.6985739442796073 0.05210168787860324 1 ) 
       ( 0.7128896447431308 0.05011249729043257 1 ) 
      ( 0.7269952488302514 0.048113390003312016 1 ) 
       ( 0.7408768360127569 0.04610860923299708 1 ) 
       ( 0.7545207068400739 0.04410233867176734 1 ) 
       ( 0.7679133964589709 0.04209870814450149 1 ) 
      ( 0.7810416879017434 0.040101799342369335 1 ) 
       ( 0.7938926251297652 0.03811565138504487 1 ) 
       ( 0.8064535258195331 0.03614426597250425 1 ) 
       ( 0.8187119938785907 0.03419161190181398 1 ) 
       ( 0.8306559316789744 0.03226162874253506 1 ) 
       ( 0.8422735519961111 0.03035822948609762 1 ) 
       ( 0.853553389641386 0.028485302009323452 1 ) 
      ( 0.8644843127769004 0.026646709219710803 1 ) 
      ( 0.8750555339012502 0.024846287779647657 1 ) 
      ( 0.8852566204954886 0.023087845337839006 1 ) 
      ( 0.8950775053187623 0.021375156228366186 1 ) 
      ( 0.9045084963434626 0.019711955630361145 1 ) 
      ( 0.9135402863200868 0.018101932213707456 1 ) 
      ( 0.9221639619623694 0.016548719327898836 1 ) 
      ( 0.9303710127436202 0.015055884821644697 1 ) 
      ( 0.9381533392955854 0.013626919609486166 1 ) 
      ( 0.9455032614015477 0.012265225128080452 1 ) 
      ( 0.9524135255757721 0.010974099848478554 1 ) 
      ( 0.9588773122218202 0.009756725031262185 1 ) 
       ( 0.9648882423626697 0.00861614992847418 1 ) 
      ( 0.9704403839359932 0.007555276649594169 1 ) 
      ( 0.9755282576483886 0.006576844918161069 1 ) 
      ( 0.9801468423827797 0.005683416950877002 1 ) 
      ( 0.9842915801536527 0.004877362692076932 1 ) 
      ( 0.9879583806052372 0.004160845633301796 1 ) 
      ( 0.9911436250481941 0.003535809440454041 1 ) 
      ( 0.9938441700308243 0.003003965599771801 1 ) 
     ( 0.9960573504412771 0.0025667822788530414 1 ) 
      ( 0.9977809821376927 0.002225474580462581 1 ) 
      ( 0.9990133641036874 0.001980996345195532 1 ) 
     ( 0.9997532801270506 0.0018340336346501507 1 ) 
                    ( 1.0 0.0017849999999999685 1 )  
	)																																																													
	spline	0	6													
	(
                                          ( 0.0 -0.0 0 ) 
 ( 0.00024671981657042874 -0.0039375352483348326 0 ) 
   ( 0.0009866357836101902 -0.007821016819968272 0 ) 
   ( 0.0022190176933925554 -0.011648893664709595 0 ) 
    ( 0.003942649333762649 -0.015419240864196933 0 ) 
     ( 0.006155829688391956 -0.01912977148592889 0 ) 
    ( 0.008856374615475837 -0.022777852882781554 0 ) 
    ( 0.012041619003218151 -0.026360527241729468 0 ) 
    ( 0.015708419399974638 -0.029874536134041858 0 ) 
      ( 0.01985315711646002 -0.03331634877115477 0 ) 
     ( 0.02447174179695788 -0.036682193626363505 0 ) 
    ( 0.029559615456007327 -0.039968093043031935 0 ) 
     ( 0.03511175697658486 -0.043169900415702095 0 ) 
     ( 0.04112268706534028 -0.046283339501747504 0 ) 
     ( 0.047586473659998074 -0.04930404539842537 0 ) 
      ( 0.05449673778358616 -0.05222760670361775 0 ) 
      ( 0.06184665983971649 -0.05504960836840994 0 ) 
      ( 0.06962898634270315 -0.05776567474602783 0 ) 
      ( 0.07783603707587677 -0.06037151234455715 0 ) 
      ( 0.08645971267103159 -0.06286295180020546 0 ) 
       ( 0.0954915026015235 -0.06523598860346431 0 ) 
      ( 0.10492249358113281 -0.06748682213211929 0 ) 
      ( 0.11474337836040116 -0.06961189257228653 0 ) 
      ( 0.12494446491176331 -0.07160791534109613 0 ) 
      ( 0.13551568599440833 -0.07347191266179538 0 ) 
       ( 0.1464466090894303 -0.07520124198334191 0 ) 
       ( 0.1577264466954656 -0.07679362098137636 0 ) 
      ( 0.16934406697465365 -0.07824714892514184 0 ) 
      ( 0.18128800473841744 -0.07956032424474749 0 ) 
       ( 0.1935464727622202 -0.08073205818443172 0 ) 
      ( 0.20610737341813284 -0.08176168447942259 0 ) 
      ( 0.21895831061373222 -0.08264896504587567 0 ) 
       ( 0.2320866020255476 -0.08339409172445394 0 ) 
      ( 0.24547929161498316 -0.08399768416768745 0 ) 
       ( 0.2591231624143632 -0.08446078400861823 0 ) 
          ( 0.273004749570484 -0.084784845492754 0 ) 
        ( 0.287110353632798 -0.08497172279642358 0 ) 
      ( 0.30142605407311807 -0.08502365429170142 0 ) 
         ( 0.315937723023497 -0.0849432440506783 0 ) 
       ( 0.3306310392187286 -0.08473344090959006 0 ) 
        ( 0.345491502129707 -0.08439751543585226 0 ) 
       ( 0.3605044462736979 -0.08393903515814144 0 ) 
       ( 0.3756550556873999 -0.08336183843114864 0 ) 
       ( 0.3909283785485107 -0.08267000731244038 0 ) 
      ( 0.40630934193137186 -0.08186783982900157 0 ) 
       ( 0.4217827666821252 -0.08095982200560994 0 ) 
      ( 0.43733338239870584 -0.07995060001637791 0 ) 
       ( 0.4529458425008854 -0.07884495280486116 0 ) 
        ( 0.468604739375493 -0.07764776549740914 0 ) 
       ( 0.4842946195818704 -0.07636400390932462 0 ) 
       ( 0.4999999991025516 -0.07499869041438142 0 ) 
       ( 0.5157053786241185 -0.07355688141583633 0 ) 
        ( 0.5313952588331522 -0.0720436466218351 0 ) 
       ( 0.5470541557121839 -0.07046405029065952 0 ) 
       ( 0.5626666158205507 -0.06882313457221681 0 ) 
       ( 0.5782172315450762 -0.06712590503218772 0 ) 
        ( 0.593690656305524 -0.06537731840497699 0 ) 
       ( 0.6090716196998196 -0.06358227258169286 0 ) 
       ( 0.6243449425740935 -0.06174559880046762 0 ) 
       ( 0.6394955520026742 -0.05987205596911089 0 ) 
       ( 0.6545084961632448 -0.05796632701495785 0 ) 
      ( 0.6693689590924875 -0.056033017124349965 0 ) 
      ( 0.6840622753076503 -0.054076653704964395 0 ) 
       ( 0.6985739442796073 -0.05210168787860324 0 ) 
       ( 0.7128896447431308 -0.05011249729043257 0 ) 
      ( 0.7269952488302514 -0.048113390003312016 0 ) 
       ( 0.7408768360127569 -0.04610860923299708 0 ) 
       ( 0.7545207068400739 -0.04410233867176734 0 ) 
       ( 0.7679133964589709 -0.04209870814450149 0 ) 
      ( 0.7810416879017434 -0.040101799342369335 0 ) 
       ( 0.7938926251297652 -0.03811565138504487 0 ) 
       ( 0.8064535258195331 -0.03614426597250425 0 ) 
       ( 0.8187119938785907 -0.03419161190181398 0 ) 
       ( 0.8306559316789744 -0.03226162874253506 0 ) 
       ( 0.8422735519961111 -0.03035822948609762 0 ) 
       ( 0.853553389641386 -0.028485302009323452 0 ) 
      ( 0.8644843127769004 -0.026646709219710803 0 ) 
      ( 0.8750555339012502 -0.024846287779647657 0 ) 
      ( 0.8852566204954886 -0.023087845337839006 0 ) 
      ( 0.8950775053187623 -0.021375156228366186 0 ) 
      ( 0.9045084963434626 -0.019711955630361145 0 ) 
      ( 0.9135402863200868 -0.018101932213707456 0 ) 
      ( 0.9221639619623694 -0.016548719327898836 0 ) 
      ( 0.9303710127436202 -0.015055884821644697 0 ) 
      ( 0.9381533392955854 -0.013626919609486166 0 ) 
      ( 0.9455032614015477 -0.012265225128080452 0 ) 
      ( 0.9524135255757721 -0.010974099848478554 0 ) 
      ( 0.9588773122218202 -0.009756725031262185 0 ) 
       ( 0.9648882423626697 -0.00861614992847418 0 ) 
      ( 0.9704403839359932 -0.007555276649594169 0 ) 
      ( 0.9755282576483886 -0.006576844918161069 0 ) 
      ( 0.9801468423827797 -0.005683416950877002 0 ) 
      ( 0.9842915801536527 -0.004877362692076932 0 ) 
      ( 0.9879583806052372 -0.004160845633301796 0 ) 
      ( 0.9911436250481941 -0.003535809440454041 0 ) 
      ( 0.9938441700308243 -0.003003965599771801 0 ) 
     ( 0.9960573504412771 -0.0025667822788530414 0 ) 
      ( 0.9977809821376927 -0.002225474580462581 0 ) 
      ( 0.9990133641036874 -0.001980996345195532 0 ) 
     ( 0.9997532801270506 -0.0018340336346501507 0 ) 
                    ( 1.0 -0.0017849999999999685 0 )  
    )
    spline 10 16
    (
                                          ( 0.0 -0.0 1 ) 
 ( 0.00024671981657042874 -0.0039375352483348326 1 ) 
   ( 0.0009866357836101902 -0.007821016819968272 1 ) 
   ( 0.0022190176933925554 -0.011648893664709595 1 ) 
    ( 0.003942649333762649 -0.015419240864196933 1 ) 
     ( 0.006155829688391956 -0.01912977148592889 1 ) 
    ( 0.008856374615475837 -0.022777852882781554 1 ) 
    ( 0.012041619003218151 -0.026360527241729468 1 ) 
    ( 0.015708419399974638 -0.029874536134041858 1 ) 
      ( 0.01985315711646002 -0.03331634877115477 1 ) 
     ( 0.02447174179695788 -0.036682193626363505 1 ) 
    ( 0.029559615456007327 -0.039968093043031935 1 ) 
     ( 0.03511175697658486 -0.043169900415702095 1 ) 
     ( 0.04112268706534028 -0.046283339501747504 1 ) 
     ( 0.047586473659998074 -0.04930404539842537 1 ) 
      ( 0.05449673778358616 -0.05222760670361775 1 ) 
      ( 0.06184665983971649 -0.05504960836840994 1 ) 
      ( 0.06962898634270315 -0.05776567474602783 1 ) 
      ( 0.07783603707587677 -0.06037151234455715 1 ) 
      ( 0.08645971267103159 -0.06286295180020546 1 ) 
       ( 0.0954915026015235 -0.06523598860346431 1 ) 
      ( 0.10492249358113281 -0.06748682213211929 1 ) 
      ( 0.11474337836040116 -0.06961189257228653 1 ) 
      ( 0.12494446491176331 -0.07160791534109613 1 ) 
      ( 0.13551568599440833 -0.07347191266179538 1 ) 
       ( 0.1464466090894303 -0.07520124198334191 1 ) 
       ( 0.1577264466954656 -0.07679362098137636 1 ) 
      ( 0.16934406697465365 -0.07824714892514184 1 ) 
      ( 0.18128800473841744 -0.07956032424474749 1 ) 
       ( 0.1935464727622202 -0.08073205818443172 1 ) 
      ( 0.20610737341813284 -0.08176168447942259 1 ) 
      ( 0.21895831061373222 -0.08264896504587567 1 ) 
       ( 0.2320866020255476 -0.08339409172445394 1 ) 
      ( 0.24547929161498316 -0.08399768416768745 1 ) 
       ( 0.2591231624143632 -0.08446078400861823 1 ) 
          ( 0.273004749570484 -0.084784845492754 1 ) 
        ( 0.287110353632798 -0.08497172279642358 1 ) 
      ( 0.30142605407311807 -0.08502365429170142 1 ) 
         ( 0.315937723023497 -0.0849432440506783 1 ) 
       ( 0.3306310392187286 -0.08473344090959006 1 ) 
        ( 0.345491502129707 -0.08439751543585226 1 ) 
       ( 0.3605044462736979 -0.08393903515814144 1 ) 
       ( 0.3756550556873999 -0.08336183843114864 1 ) 
       ( 0.3909283785485107 -0.08267000731244038 1 ) 
      ( 0.40630934193137186 -0.08186783982900157 1 ) 
       ( 0.4217827666821252 -0.08095982200560994 1 ) 
      ( 0.43733338239870584 -0.07995060001637791 1 ) 
       ( 0.4529458425008854 -0.07884495280486116 1 ) 
        ( 0.468604739375493 -0.07764776549740914 1 ) 
       ( 0.4842946195818704 -0.07636400390932462 1 ) 
       ( 0.4999999991025516 -0.07499869041438142 1 ) 
       ( 0.5157053786241185 -0.07355688141583633 1 ) 
        ( 0.5313952588331522 -0.0720436466218351 1 ) 
       ( 0.5470541557121839 -0.07046405029065952 1 ) 
       ( 0.5626666158205507 -0.06882313457221681 1 ) 
       ( 0.5782172315450762 -0.06712590503218772 1 ) 
        ( 0.593690656305524 -0.06537731840497699 1 ) 
       ( 0.6090716196998196 -0.06358227258169286 1 ) 
       ( 0.6243449425740935 -0.06174559880046762 1 ) 
       ( 0.6394955520026742 -0.05987205596911089 1 ) 
       ( 0.6545084961632448 -0.05796632701495785 1 ) 
      ( 0.6693689590924875 -0.056033017124349965 1 ) 
      ( 0.6840622753076503 -0.054076653704964395 1 ) 
       ( 0.6985739442796073 -0.05210168787860324 1 ) 
       ( 0.7128896447431308 -0.05011249729043257 1 ) 
      ( 0.7269952488302514 -0.048113390003312016 1 ) 
       ( 0.7408768360127569 -0.04610860923299708 1 ) 
       ( 0.7545207068400739 -0.04410233867176734 1 ) 
       ( 0.7679133964589709 -0.04209870814450149 1 ) 
      ( 0.7810416879017434 -0.040101799342369335 1 ) 
       ( 0.7938926251297652 -0.03811565138504487 1 ) 
       ( 0.8064535258195331 -0.03614426597250425 1 ) 
       ( 0.8187119938785907 -0.03419161190181398 1 ) 
       ( 0.8306559316789744 -0.03226162874253506 1 ) 
       ( 0.8422735519961111 -0.03035822948609762 1 ) 
       ( 0.853553389641386 -0.028485302009323452 1 ) 
      ( 0.8644843127769004 -0.026646709219710803 1 ) 
      ( 0.8750555339012502 -0.024846287779647657 1 ) 
      ( 0.8852566204954886 -0.023087845337839006 1 ) 
      ( 0.8950775053187623 -0.021375156228366186 1 ) 
      ( 0.9045084963434626 -0.019711955630361145 1 ) 
      ( 0.9135402863200868 -0.018101932213707456 1 ) 
      ( 0.9221639619623694 -0.016548719327898836 1 ) 
      ( 0.9303710127436202 -0.015055884821644697 1 ) 
      ( 0.9381533392955854 -0.013626919609486166 1 ) 
      ( 0.9455032614015477 -0.012265225128080452 1 ) 
      ( 0.9524135255757721 -0.010974099848478554 1 ) 
      ( 0.9588773122218202 -0.009756725031262185 1 ) 
       ( 0.9648882423626697 -0.00861614992847418 1 ) 
      ( 0.9704403839359932 -0.007555276649594169 1 ) 
      ( 0.9755282576483886 -0.006576844918161069 1 ) 
      ( 0.9801468423827797 -0.005683416950877002 1 ) 
      ( 0.9842915801536527 -0.004877362692076932 1 ) 
      ( 0.9879583806052372 -0.004160845633301796 1 ) 
      ( 0.9911436250481941 -0.003535809440454041 1 ) 
      ( 0.9938441700308243 -0.003003965599771801 1 ) 
     ( 0.9960573504412771 -0.0025667822788530414 1 ) 
      ( 0.9977809821376927 -0.002225474580462581 1 ) 
      ( 0.9990133641036874 -0.001980996345195532 1 ) 
     ( 0.9997532801270506 -0.0018340336346501507 1 ) 
                    ( 1.0 -0.0017849999999999685 1 )  
							
    )															
                                                                    
                                                                    
    );																
                                                                    
    faces																
    (																
                                                                    
    );																
                                                                    
    faces																
    (																
                                                                    
    );																
                                                                    
                                                                    
    defaultPatch																
    {																
        name frontAndBack;																
        type empty;																
    }		
                                                                                                                                
    boundary																
    (																
        inlet              																
            {																
            type patch;    																
            faces																
            (																
                (3 13 12 2)
                (8 18 13 3)
                (5 2 12 15)
                (8 9 19 18)															
            );																
            } 
        outlet              																
            {																
            type patch;    																
            faces																
            (																
                (4 5 15 14)
                (7 4 14 17)
                (7 17 19 9)  															
            );																
            }	

        foil              																
            {																
            type wall;    																
            faces																
            (																
                (0 1 11 10)
                (0 6 16 10)
                (6 1 11 16)															
            );																
            }	
                                                                
                                                                        
    );	
    // ************************************************************************* //																
                                                                    			               	
    