/*--------------------------------*- C++ -*----------------------------------*  =========                 |
  \      /  F ield         | OpenFOAM: The Open Source CFD Toolbox
   \    /   O peration     | Website:  https://openfoam.org
    \  /    A nd           | Version:  7
     \/     M anipulation  |
\*---------------------------------------------------------------------------*/																
FoamFile																
{																
    version     2.0;																
    format      ascii;																
    class       dictionary;																
    object      blockMeshDict;																
}																
// * * * * * * * * * * * * * * * * * * * * * * * * * * * * * * * * * * * * * //

															
scale 1;														
                                                                
geometry																
{																
}	

vertices
(
               															
	                    ( 0.0 0.0 0.0) // 0
   ( 1.0 0.003149999999999944 0.0) // 1
                   ( 1.0 10.0 0.0) // 2
                  ( -10.0 0.0 0.0) // 3
  ( 15.0 0.003149999999999944 0.0) // 4
                  ( 15.0 10.0 0.0) // 5
  ( 1.0 -0.003149999999999944 0.0) // 6
 ( 15.0 -0.003149999999999944 0.0) // 7
                  ( 1.0 -10.0 0.0) // 8
                 ( 15.0 -10.0 0.0) // 9
                   ( 0.0 0.0 1.0) // 10
  ( 1.0 0.003149999999999944 1.0) // 11
                  ( 1.0 10.0 1.0) // 12
                 ( -10.0 0.0 1.0) // 13
 ( 15.0 0.003149999999999944 1.0) // 14
                 ( 15.0 10.0 1.0) // 15
 ( 1.0 -0.003149999999999944 1.0) // 16
( 15.0 -0.003149999999999944 1.0) // 17
                 ( 1.0 -10.0 1.0) // 18
                ( 15.0 -10.0 1.0) // 19 
        );
        
blocks																
(																
	hex	(0 1 2 3 10 11 12 13)	( 300 100 1) simpleGrading (1 1000 1)   //block	0
																													
	hex	(1 4 5 2 11 14 15 12)	( 500 100 1) simpleGrading (15 1000 1)  //block	1														
               											
	hex	(6 7 4 1 16 17 14 11)	( 500 10 1) simpleGrading (15 1 1)      //block	2
																																								
	hex	(8 9 7 6 18 19 17 16)	( 500 100 1) simpleGrading (15 0.001 1) //block	3	
	
	hex	(3 8 6 0 13 18 16 10)	( 300 100 1) simpleGrading (1 0.001 1)  //block	4								
);		

edges																
(																
	arc	2 3	(-7 7 0)									
	arc	12 13	(-7 7 1)
	arc	8 3	(-7 -7 0)									
	arc	18 13	(-7 -7 1)									
																
	spline	0 1													
	(					      

                                         ( 0.0 0.0 0 ) 
 ( 0.00024671981657042874 0.006948591614708528 0 ) 
  ( 0.0009866357836101902 0.013801794388179302 0 ) 
  ( 0.0022190176933925554 0.020556871173016928 0 ) 
   ( 0.003942649333762649 0.027210425054465172 0 ) 
    ( 0.006155829688391956 0.03375842026928627 0 ) 
     ( 0.008856374615475837 0.0401962109696145 0 ) 
    ( 0.012041619003218151 0.04651857748540494 0 ) 
   ( 0.015708419399974638 0.052719769648309156 0 ) 
       ( 0.01985315711646002 0.058793556654979 0 ) 
     ( 0.02447174179695788 0.06473328287005323 0 ) 
     ( 0.029559615456007327 0.0705319288994681 0 ) 
     ( 0.03511175697658486 0.07618217720418016 0 ) 
     ( 0.04112268706534028 0.08167648147367206 0 ) 
    ( 0.047586473659998074 0.08700713893839769 0 ) 
     ( 0.05449673778358616 0.09216636477109014 0 ) 
     ( 0.06184665983971649 0.09714636770895871 0 ) 
     ( 0.06962898634270315 0.10193942602240204 0 ) 
     ( 0.07783603707587677 0.10653796296098318 0 ) 
     ( 0.08645971267103159 0.11093462082389198 0 ) 
      ( 0.0954915026015235 0.11512233282964289 0 ) 
     ( 0.10492249358113281 0.11909439199785754 0 ) 
     ( 0.11474337836040116 0.12284451630403505 0 ) 
     ( 0.12494446491176331 0.12636690942546375 0 ) 
     ( 0.13551568599440833 0.12965631646199183 0 ) 
      ( 0.1464466090894303 0.13270807408825042 0 ) 
      ( 0.1577264466954656 0.13551815467301712 0 ) 
      ( 0.16934406697465365 0.1380832039855444 0 ) 
      ( 0.18128800473841744 0.1404005721966132 0 ) 
      ( 0.1935464727622202 0.14246833797252653 0 ) 
      ( 0.20610737341813284 0.1442853255519222 0 ) 
     ( 0.21895831061373222 0.14585111478683938 0 ) 
       ( 0.2320866020255476 0.1471660442196246 0 ) 
     ( 0.24547929161498316 0.14823120735474254 0 ) 
       ( 0.2591231624143632 0.1490484423681498 0 ) 
       ( 0.273004749570484 0.14962031557544822 0 ) 
        ( 0.287110353632798 0.1499500990525122 0 ) 
     ( 0.30142605407311807 0.15004174286770836 0 ) 
       ( 0.315937723023497 0.14989984244237345 0 ) 
       ( 0.3306310392187286 0.1495296016051589 0 ) 
       ( 0.345491502129707 0.14893679194562162 0 ) 
      ( 0.3605044462736979 0.14812770910260253 0 ) 
      ( 0.3756550556873999 0.14710912664320347 0 ) 
      ( 0.3909283785485107 0.14588824819842416 0 ) 
     ( 0.40630934193137186 0.14447265852176747 0 ) 
      ( 0.4217827666821252 0.14287027412754694 0 ) 
     ( 0.43733338239870584 0.14108929414654922 0 ) 
      ( 0.4529458425008854 0.13913815200857851 0 ) 
       ( 0.468604739375493 0.13702546852483963 0 ) 
      ( 0.4842946195818704 0.13476000689880813 0 ) 
      ( 0.4999999991025516 0.13235063014302603 0 ) 
      ( 0.5157053786241185 0.12980626132206408 0 ) 
      ( 0.5313952588331522 0.12713584697970898 0 ) 
      ( 0.5470541557121839 0.12434832404234034 0 ) 
      ( 0.5626666158205507 0.12145259042155906 0 ) 
      ( 0.5782172315450762 0.11845747946856656 0 ) 
       ( 0.593690656305524 0.11537173836172407 0 ) 
       ( 0.6090716196998196 0.1122040104382815 0 ) 
      ( 0.6243449425740935 0.10896282141258991 0 ) 
       ( 0.6394955520026742 0.1056565693572545 0 ) 
      ( 0.6545084961632448 0.10229351826169031 0 ) 
      ( 0.6693689590924875 0.09888179492532345 0 ) 
      ( 0.6840622753076503 0.09542938889111363 0 ) 
      ( 0.6985739442796073 0.09194415507988805 0 ) 
      ( 0.7128896447431308 0.08843381874782218 0 ) 
       ( 0.7269952488302514 0.0849059823587859 0 ) 
      ( 0.7408768360127569 0.08136813394058308 0 ) 
      ( 0.7545207068400739 0.07782765647958942 0 ) 
      ( 0.7679133964589709 0.07429183790206145 0 ) 
      ( 0.7810416879017434 0.07076788119241646 0 ) 
      ( 0.7938926251297652 0.06726291420890271 0 ) 
       ( 0.8064535258195331 0.0637839987750075 0 ) 
     ( 0.8187119938785907 0.060338138650259956 0 ) 
     ( 0.8306559316789744 0.056932286016238336 0 ) 
      ( 0.8422735519961111 0.05357334615193697 0 ) 
       ( 0.853553389641386 0.05026818001645314 0 ) 
        ( 0.8644843127769004 0.047023604505372 0 ) 
     ( 0.8750555339012502 0.043846390199378214 0 ) 
      ( 0.8852566204954886 0.04074325647853942 0 ) 
      ( 0.8950775053187623 0.03772086393241091 0 ) 
     ( 0.9045084963434626 0.034785804053578485 0 ) 
      ( 0.9135402863200868 0.03194458625948374 0 ) 
     ( 0.9221639619623694 0.029203622343350884 0 ) 
     ( 0.9303710127436202 0.026569208508784758 0 ) 
     ( 0.9381533392955854 0.024047505193210878 0 ) 
     ( 0.9455032614015477 0.021644514931906677 0 ) 
     ( 0.9524135255757721 0.019366058556138623 0 ) 
     ( 0.9588773122218202 0.017217750055168558 0 ) 
     ( 0.9648882423626697 0.015204970462013257 0 ) 
      ( 0.9704403839359932 0.01333284114634265 0 ) 
     ( 0.9755282576483886 0.011606196914401885 0 ) 
     ( 0.9801468423827797 0.010029559325077061 0 ) 
     ( 0.9842915801536527 0.008607110633076938 0 ) 
     ( 0.9879583806052372 0.007342668764650228 0 ) 
     ( 0.9911436250481941 0.006239663718448306 0 ) 
    ( 0.9938441700308243 0.0053011157643031775 0 ) 
     ( 0.9960573504412771 0.004529615786211249 0 ) 
      ( 0.9977809821376927 0.00392730808316926 0 ) 
    ( 0.9990133641036874 0.0034958759032862326 0 ) 
    ( 0.9997532801270506 0.0032365299435002655 0 ) 
                    ( 1.0 0.003149999999999944 0 )  
    )
    spline 10 11
    (
                                         ( 0.0 0.0 1 ) 
 ( 0.00024671981657042874 0.006948591614708528 1 ) 
  ( 0.0009866357836101902 0.013801794388179302 1 ) 
  ( 0.0022190176933925554 0.020556871173016928 1 ) 
   ( 0.003942649333762649 0.027210425054465172 1 ) 
    ( 0.006155829688391956 0.03375842026928627 1 ) 
     ( 0.008856374615475837 0.0401962109696145 1 ) 
    ( 0.012041619003218151 0.04651857748540494 1 ) 
   ( 0.015708419399974638 0.052719769648309156 1 ) 
       ( 0.01985315711646002 0.058793556654979 1 ) 
     ( 0.02447174179695788 0.06473328287005323 1 ) 
     ( 0.029559615456007327 0.0705319288994681 1 ) 
     ( 0.03511175697658486 0.07618217720418016 1 ) 
     ( 0.04112268706534028 0.08167648147367206 1 ) 
    ( 0.047586473659998074 0.08700713893839769 1 ) 
     ( 0.05449673778358616 0.09216636477109014 1 ) 
     ( 0.06184665983971649 0.09714636770895871 1 ) 
     ( 0.06962898634270315 0.10193942602240204 1 ) 
     ( 0.07783603707587677 0.10653796296098318 1 ) 
     ( 0.08645971267103159 0.11093462082389198 1 ) 
      ( 0.0954915026015235 0.11512233282964289 1 ) 
     ( 0.10492249358113281 0.11909439199785754 1 ) 
     ( 0.11474337836040116 0.12284451630403505 1 ) 
     ( 0.12494446491176331 0.12636690942546375 1 ) 
     ( 0.13551568599440833 0.12965631646199183 1 ) 
      ( 0.1464466090894303 0.13270807408825042 1 ) 
      ( 0.1577264466954656 0.13551815467301712 1 ) 
      ( 0.16934406697465365 0.1380832039855444 1 ) 
      ( 0.18128800473841744 0.1404005721966132 1 ) 
      ( 0.1935464727622202 0.14246833797252653 1 ) 
      ( 0.20610737341813284 0.1442853255519222 1 ) 
     ( 0.21895831061373222 0.14585111478683938 1 ) 
       ( 0.2320866020255476 0.1471660442196246 1 ) 
     ( 0.24547929161498316 0.14823120735474254 1 ) 
       ( 0.2591231624143632 0.1490484423681498 1 ) 
       ( 0.273004749570484 0.14962031557544822 1 ) 
        ( 0.287110353632798 0.1499500990525122 1 ) 
     ( 0.30142605407311807 0.15004174286770836 1 ) 
       ( 0.315937723023497 0.14989984244237345 1 ) 
       ( 0.3306310392187286 0.1495296016051589 1 ) 
       ( 0.345491502129707 0.14893679194562162 1 ) 
      ( 0.3605044462736979 0.14812770910260253 1 ) 
      ( 0.3756550556873999 0.14710912664320347 1 ) 
      ( 0.3909283785485107 0.14588824819842416 1 ) 
     ( 0.40630934193137186 0.14447265852176747 1 ) 
      ( 0.4217827666821252 0.14287027412754694 1 ) 
     ( 0.43733338239870584 0.14108929414654922 1 ) 
      ( 0.4529458425008854 0.13913815200857851 1 ) 
       ( 0.468604739375493 0.13702546852483963 1 ) 
      ( 0.4842946195818704 0.13476000689880813 1 ) 
      ( 0.4999999991025516 0.13235063014302603 1 ) 
      ( 0.5157053786241185 0.12980626132206408 1 ) 
      ( 0.5313952588331522 0.12713584697970898 1 ) 
      ( 0.5470541557121839 0.12434832404234034 1 ) 
      ( 0.5626666158205507 0.12145259042155906 1 ) 
      ( 0.5782172315450762 0.11845747946856656 1 ) 
       ( 0.593690656305524 0.11537173836172407 1 ) 
       ( 0.6090716196998196 0.1122040104382815 1 ) 
      ( 0.6243449425740935 0.10896282141258991 1 ) 
       ( 0.6394955520026742 0.1056565693572545 1 ) 
      ( 0.6545084961632448 0.10229351826169031 1 ) 
      ( 0.6693689590924875 0.09888179492532345 1 ) 
      ( 0.6840622753076503 0.09542938889111363 1 ) 
      ( 0.6985739442796073 0.09194415507988805 1 ) 
      ( 0.7128896447431308 0.08843381874782218 1 ) 
       ( 0.7269952488302514 0.0849059823587859 1 ) 
      ( 0.7408768360127569 0.08136813394058308 1 ) 
      ( 0.7545207068400739 0.07782765647958942 1 ) 
      ( 0.7679133964589709 0.07429183790206145 1 ) 
      ( 0.7810416879017434 0.07076788119241646 1 ) 
      ( 0.7938926251297652 0.06726291420890271 1 ) 
       ( 0.8064535258195331 0.0637839987750075 1 ) 
     ( 0.8187119938785907 0.060338138650259956 1 ) 
     ( 0.8306559316789744 0.056932286016238336 1 ) 
      ( 0.8422735519961111 0.05357334615193697 1 ) 
       ( 0.853553389641386 0.05026818001645314 1 ) 
        ( 0.8644843127769004 0.047023604505372 1 ) 
     ( 0.8750555339012502 0.043846390199378214 1 ) 
      ( 0.8852566204954886 0.04074325647853942 1 ) 
      ( 0.8950775053187623 0.03772086393241091 1 ) 
     ( 0.9045084963434626 0.034785804053578485 1 ) 
      ( 0.9135402863200868 0.03194458625948374 1 ) 
     ( 0.9221639619623694 0.029203622343350884 1 ) 
     ( 0.9303710127436202 0.026569208508784758 1 ) 
     ( 0.9381533392955854 0.024047505193210878 1 ) 
     ( 0.9455032614015477 0.021644514931906677 1 ) 
     ( 0.9524135255757721 0.019366058556138623 1 ) 
     ( 0.9588773122218202 0.017217750055168558 1 ) 
     ( 0.9648882423626697 0.015204970462013257 1 ) 
      ( 0.9704403839359932 0.01333284114634265 1 ) 
     ( 0.9755282576483886 0.011606196914401885 1 ) 
     ( 0.9801468423827797 0.010029559325077061 1 ) 
     ( 0.9842915801536527 0.008607110633076938 1 ) 
     ( 0.9879583806052372 0.007342668764650228 1 ) 
     ( 0.9911436250481941 0.006239663718448306 1 ) 
    ( 0.9938441700308243 0.0053011157643031775 1 ) 
     ( 0.9960573504412771 0.004529615786211249 1 ) 
      ( 0.9977809821376927 0.00392730808316926 1 ) 
    ( 0.9990133641036874 0.0034958759032862326 1 ) 
    ( 0.9997532801270506 0.0032365299435002655 1 ) 
                    ( 1.0 0.003149999999999944 1 )  
	)																																																													
	spline	0	6													
	(
                                         ( 0.0 -0.0 0 ) 
 ( 0.00024671981657042874 -0.006948591614708528 0 ) 
  ( 0.0009866357836101902 -0.013801794388179302 0 ) 
  ( 0.0022190176933925554 -0.020556871173016928 0 ) 
   ( 0.003942649333762649 -0.027210425054465172 0 ) 
    ( 0.006155829688391956 -0.03375842026928627 0 ) 
     ( 0.008856374615475837 -0.0401962109696145 0 ) 
    ( 0.012041619003218151 -0.04651857748540494 0 ) 
   ( 0.015708419399974638 -0.052719769648309156 0 ) 
       ( 0.01985315711646002 -0.058793556654979 0 ) 
     ( 0.02447174179695788 -0.06473328287005323 0 ) 
     ( 0.029559615456007327 -0.0705319288994681 0 ) 
     ( 0.03511175697658486 -0.07618217720418016 0 ) 
     ( 0.04112268706534028 -0.08167648147367206 0 ) 
    ( 0.047586473659998074 -0.08700713893839769 0 ) 
     ( 0.05449673778358616 -0.09216636477109014 0 ) 
     ( 0.06184665983971649 -0.09714636770895871 0 ) 
     ( 0.06962898634270315 -0.10193942602240204 0 ) 
     ( 0.07783603707587677 -0.10653796296098318 0 ) 
     ( 0.08645971267103159 -0.11093462082389198 0 ) 
      ( 0.0954915026015235 -0.11512233282964289 0 ) 
     ( 0.10492249358113281 -0.11909439199785754 0 ) 
     ( 0.11474337836040116 -0.12284451630403505 0 ) 
     ( 0.12494446491176331 -0.12636690942546375 0 ) 
     ( 0.13551568599440833 -0.12965631646199183 0 ) 
      ( 0.1464466090894303 -0.13270807408825042 0 ) 
      ( 0.1577264466954656 -0.13551815467301712 0 ) 
      ( 0.16934406697465365 -0.1380832039855444 0 ) 
      ( 0.18128800473841744 -0.1404005721966132 0 ) 
      ( 0.1935464727622202 -0.14246833797252653 0 ) 
      ( 0.20610737341813284 -0.1442853255519222 0 ) 
     ( 0.21895831061373222 -0.14585111478683938 0 ) 
       ( 0.2320866020255476 -0.1471660442196246 0 ) 
     ( 0.24547929161498316 -0.14823120735474254 0 ) 
       ( 0.2591231624143632 -0.1490484423681498 0 ) 
       ( 0.273004749570484 -0.14962031557544822 0 ) 
        ( 0.287110353632798 -0.1499500990525122 0 ) 
     ( 0.30142605407311807 -0.15004174286770836 0 ) 
       ( 0.315937723023497 -0.14989984244237345 0 ) 
       ( 0.3306310392187286 -0.1495296016051589 0 ) 
       ( 0.345491502129707 -0.14893679194562162 0 ) 
      ( 0.3605044462736979 -0.14812770910260253 0 ) 
      ( 0.3756550556873999 -0.14710912664320347 0 ) 
      ( 0.3909283785485107 -0.14588824819842416 0 ) 
     ( 0.40630934193137186 -0.14447265852176747 0 ) 
      ( 0.4217827666821252 -0.14287027412754694 0 ) 
     ( 0.43733338239870584 -0.14108929414654922 0 ) 
      ( 0.4529458425008854 -0.13913815200857851 0 ) 
       ( 0.468604739375493 -0.13702546852483963 0 ) 
      ( 0.4842946195818704 -0.13476000689880813 0 ) 
      ( 0.4999999991025516 -0.13235063014302603 0 ) 
      ( 0.5157053786241185 -0.12980626132206408 0 ) 
      ( 0.5313952588331522 -0.12713584697970898 0 ) 
      ( 0.5470541557121839 -0.12434832404234034 0 ) 
      ( 0.5626666158205507 -0.12145259042155906 0 ) 
      ( 0.5782172315450762 -0.11845747946856656 0 ) 
       ( 0.593690656305524 -0.11537173836172407 0 ) 
       ( 0.6090716196998196 -0.1122040104382815 0 ) 
      ( 0.6243449425740935 -0.10896282141258991 0 ) 
       ( 0.6394955520026742 -0.1056565693572545 0 ) 
      ( 0.6545084961632448 -0.10229351826169031 0 ) 
      ( 0.6693689590924875 -0.09888179492532345 0 ) 
      ( 0.6840622753076503 -0.09542938889111363 0 ) 
      ( 0.6985739442796073 -0.09194415507988805 0 ) 
      ( 0.7128896447431308 -0.08843381874782218 0 ) 
       ( 0.7269952488302514 -0.0849059823587859 0 ) 
      ( 0.7408768360127569 -0.08136813394058308 0 ) 
      ( 0.7545207068400739 -0.07782765647958942 0 ) 
      ( 0.7679133964589709 -0.07429183790206145 0 ) 
      ( 0.7810416879017434 -0.07076788119241646 0 ) 
      ( 0.7938926251297652 -0.06726291420890271 0 ) 
       ( 0.8064535258195331 -0.0637839987750075 0 ) 
     ( 0.8187119938785907 -0.060338138650259956 0 ) 
     ( 0.8306559316789744 -0.056932286016238336 0 ) 
      ( 0.8422735519961111 -0.05357334615193697 0 ) 
       ( 0.853553389641386 -0.05026818001645314 0 ) 
        ( 0.8644843127769004 -0.047023604505372 0 ) 
     ( 0.8750555339012502 -0.043846390199378214 0 ) 
      ( 0.8852566204954886 -0.04074325647853942 0 ) 
      ( 0.8950775053187623 -0.03772086393241091 0 ) 
     ( 0.9045084963434626 -0.034785804053578485 0 ) 
      ( 0.9135402863200868 -0.03194458625948374 0 ) 
     ( 0.9221639619623694 -0.029203622343350884 0 ) 
     ( 0.9303710127436202 -0.026569208508784758 0 ) 
     ( 0.9381533392955854 -0.024047505193210878 0 ) 
     ( 0.9455032614015477 -0.021644514931906677 0 ) 
     ( 0.9524135255757721 -0.019366058556138623 0 ) 
     ( 0.9588773122218202 -0.017217750055168558 0 ) 
     ( 0.9648882423626697 -0.015204970462013257 0 ) 
      ( 0.9704403839359932 -0.01333284114634265 0 ) 
     ( 0.9755282576483886 -0.011606196914401885 0 ) 
     ( 0.9801468423827797 -0.010029559325077061 0 ) 
     ( 0.9842915801536527 -0.008607110633076938 0 ) 
     ( 0.9879583806052372 -0.007342668764650228 0 ) 
     ( 0.9911436250481941 -0.006239663718448306 0 ) 
    ( 0.9938441700308243 -0.0053011157643031775 0 ) 
     ( 0.9960573504412771 -0.004529615786211249 0 ) 
      ( 0.9977809821376927 -0.00392730808316926 0 ) 
    ( 0.9990133641036874 -0.0034958759032862326 0 ) 
    ( 0.9997532801270506 -0.0032365299435002655 0 ) 
                    ( 1.0 -0.003149999999999944 0 )  
    )
    spline 10 16
    (
                                         ( 0.0 -0.0 1 ) 
 ( 0.00024671981657042874 -0.006948591614708528 1 ) 
  ( 0.0009866357836101902 -0.013801794388179302 1 ) 
  ( 0.0022190176933925554 -0.020556871173016928 1 ) 
   ( 0.003942649333762649 -0.027210425054465172 1 ) 
    ( 0.006155829688391956 -0.03375842026928627 1 ) 
     ( 0.008856374615475837 -0.0401962109696145 1 ) 
    ( 0.012041619003218151 -0.04651857748540494 1 ) 
   ( 0.015708419399974638 -0.052719769648309156 1 ) 
       ( 0.01985315711646002 -0.058793556654979 1 ) 
     ( 0.02447174179695788 -0.06473328287005323 1 ) 
     ( 0.029559615456007327 -0.0705319288994681 1 ) 
     ( 0.03511175697658486 -0.07618217720418016 1 ) 
     ( 0.04112268706534028 -0.08167648147367206 1 ) 
    ( 0.047586473659998074 -0.08700713893839769 1 ) 
     ( 0.05449673778358616 -0.09216636477109014 1 ) 
     ( 0.06184665983971649 -0.09714636770895871 1 ) 
     ( 0.06962898634270315 -0.10193942602240204 1 ) 
     ( 0.07783603707587677 -0.10653796296098318 1 ) 
     ( 0.08645971267103159 -0.11093462082389198 1 ) 
      ( 0.0954915026015235 -0.11512233282964289 1 ) 
     ( 0.10492249358113281 -0.11909439199785754 1 ) 
     ( 0.11474337836040116 -0.12284451630403505 1 ) 
     ( 0.12494446491176331 -0.12636690942546375 1 ) 
     ( 0.13551568599440833 -0.12965631646199183 1 ) 
      ( 0.1464466090894303 -0.13270807408825042 1 ) 
      ( 0.1577264466954656 -0.13551815467301712 1 ) 
      ( 0.16934406697465365 -0.1380832039855444 1 ) 
      ( 0.18128800473841744 -0.1404005721966132 1 ) 
      ( 0.1935464727622202 -0.14246833797252653 1 ) 
      ( 0.20610737341813284 -0.1442853255519222 1 ) 
     ( 0.21895831061373222 -0.14585111478683938 1 ) 
       ( 0.2320866020255476 -0.1471660442196246 1 ) 
     ( 0.24547929161498316 -0.14823120735474254 1 ) 
       ( 0.2591231624143632 -0.1490484423681498 1 ) 
       ( 0.273004749570484 -0.14962031557544822 1 ) 
        ( 0.287110353632798 -0.1499500990525122 1 ) 
     ( 0.30142605407311807 -0.15004174286770836 1 ) 
       ( 0.315937723023497 -0.14989984244237345 1 ) 
       ( 0.3306310392187286 -0.1495296016051589 1 ) 
       ( 0.345491502129707 -0.14893679194562162 1 ) 
      ( 0.3605044462736979 -0.14812770910260253 1 ) 
      ( 0.3756550556873999 -0.14710912664320347 1 ) 
      ( 0.3909283785485107 -0.14588824819842416 1 ) 
     ( 0.40630934193137186 -0.14447265852176747 1 ) 
      ( 0.4217827666821252 -0.14287027412754694 1 ) 
     ( 0.43733338239870584 -0.14108929414654922 1 ) 
      ( 0.4529458425008854 -0.13913815200857851 1 ) 
       ( 0.468604739375493 -0.13702546852483963 1 ) 
      ( 0.4842946195818704 -0.13476000689880813 1 ) 
      ( 0.4999999991025516 -0.13235063014302603 1 ) 
      ( 0.5157053786241185 -0.12980626132206408 1 ) 
      ( 0.5313952588331522 -0.12713584697970898 1 ) 
      ( 0.5470541557121839 -0.12434832404234034 1 ) 
      ( 0.5626666158205507 -0.12145259042155906 1 ) 
      ( 0.5782172315450762 -0.11845747946856656 1 ) 
       ( 0.593690656305524 -0.11537173836172407 1 ) 
       ( 0.6090716196998196 -0.1122040104382815 1 ) 
      ( 0.6243449425740935 -0.10896282141258991 1 ) 
       ( 0.6394955520026742 -0.1056565693572545 1 ) 
      ( 0.6545084961632448 -0.10229351826169031 1 ) 
      ( 0.6693689590924875 -0.09888179492532345 1 ) 
      ( 0.6840622753076503 -0.09542938889111363 1 ) 
      ( 0.6985739442796073 -0.09194415507988805 1 ) 
      ( 0.7128896447431308 -0.08843381874782218 1 ) 
       ( 0.7269952488302514 -0.0849059823587859 1 ) 
      ( 0.7408768360127569 -0.08136813394058308 1 ) 
      ( 0.7545207068400739 -0.07782765647958942 1 ) 
      ( 0.7679133964589709 -0.07429183790206145 1 ) 
      ( 0.7810416879017434 -0.07076788119241646 1 ) 
      ( 0.7938926251297652 -0.06726291420890271 1 ) 
       ( 0.8064535258195331 -0.0637839987750075 1 ) 
     ( 0.8187119938785907 -0.060338138650259956 1 ) 
     ( 0.8306559316789744 -0.056932286016238336 1 ) 
      ( 0.8422735519961111 -0.05357334615193697 1 ) 
       ( 0.853553389641386 -0.05026818001645314 1 ) 
        ( 0.8644843127769004 -0.047023604505372 1 ) 
     ( 0.8750555339012502 -0.043846390199378214 1 ) 
      ( 0.8852566204954886 -0.04074325647853942 1 ) 
      ( 0.8950775053187623 -0.03772086393241091 1 ) 
     ( 0.9045084963434626 -0.034785804053578485 1 ) 
      ( 0.9135402863200868 -0.03194458625948374 1 ) 
     ( 0.9221639619623694 -0.029203622343350884 1 ) 
     ( 0.9303710127436202 -0.026569208508784758 1 ) 
     ( 0.9381533392955854 -0.024047505193210878 1 ) 
     ( 0.9455032614015477 -0.021644514931906677 1 ) 
     ( 0.9524135255757721 -0.019366058556138623 1 ) 
     ( 0.9588773122218202 -0.017217750055168558 1 ) 
     ( 0.9648882423626697 -0.015204970462013257 1 ) 
      ( 0.9704403839359932 -0.01333284114634265 1 ) 
     ( 0.9755282576483886 -0.011606196914401885 1 ) 
     ( 0.9801468423827797 -0.010029559325077061 1 ) 
     ( 0.9842915801536527 -0.008607110633076938 1 ) 
     ( 0.9879583806052372 -0.007342668764650228 1 ) 
     ( 0.9911436250481941 -0.006239663718448306 1 ) 
    ( 0.9938441700308243 -0.0053011157643031775 1 ) 
     ( 0.9960573504412771 -0.004529615786211249 1 ) 
      ( 0.9977809821376927 -0.00392730808316926 1 ) 
    ( 0.9990133641036874 -0.0034958759032862326 1 ) 
    ( 0.9997532801270506 -0.0032365299435002655 1 ) 
                    ( 1.0 -0.003149999999999944 1 )  
							
    )															
                                                                    
                                                                    
    );																
                                                                    
    faces																
    (																
                                                                    
    );																
                                                                    
    faces																
    (																
                                                                    
    );																
                                                                    
                                                                    
    defaultPatch																
    {																
        name frontAndBack;																
        type empty;																
    }		
                                                                                                                                
    boundary																
    (																
        inlet              																
            {																
            type patch;    																
            faces																
            (																
                (3 13 12 2)
                (8 18 13 3)
                (5 2 12 15)
                (8 9 19 18)															
            );																
            } 
        outlet              																
            {																
            type patch;    																
            faces																
            (																
                (4 5 15 14)
                (7 4 14 17)
                (7 17 19 9)  															
            );																
            }	

        foil              																
            {																
            type wall;    																
            faces																
            (																
                (0 1 11 10)
                (0 6 16 10)
                (6 1 11 16)															
            );																
            }	
                                                                
                                                                        
    );	
    // ************************************************************************* //																
                                                                    			               	
    