/*--------------------------------*- C++ -*----------------------------------*  =========                 |
  \      /  F ield         | OpenFOAM: The Open Source CFD Toolbox
   \    /   O peration     | Website:  https://openfoam.org
    \  /    A nd           | Version:  7
     \/     M anipulation  |
\*---------------------------------------------------------------------------*/																
FoamFile																
{																
    version     2.0;																
    format      ascii;																
    class       dictionary;																
    object      blockMeshDict;																
}																
// * * * * * * * * * * * * * * * * * * * * * * * * * * * * * * * * * * * * * //

															
scale 1;														
                                                                
geometry																
{																
}	

vertices
(
               															
	                    ( 0.0 0.0 0.0) // 0
   ( 1.0 0.002099999999999963 0.0) // 1
                   ( 1.0 10.0 0.0) // 2
                  ( -10.0 0.0 0.0) // 3
  ( 15.0 0.002099999999999963 0.0) // 4
                  ( 15.0 10.0 0.0) // 5
  ( 1.0 -0.002099999999999963 0.0) // 6
 ( 15.0 -0.002099999999999963 0.0) // 7
                  ( 1.0 -10.0 0.0) // 8
                 ( 15.0 -10.0 0.0) // 9
                   ( 0.0 0.0 1.0) // 10
  ( 1.0 0.002099999999999963 1.0) // 11
                  ( 1.0 10.0 1.0) // 12
                 ( -10.0 0.0 1.0) // 13
 ( 15.0 0.002099999999999963 1.0) // 14
                 ( 15.0 10.0 1.0) // 15
 ( 1.0 -0.002099999999999963 1.0) // 16
( 15.0 -0.002099999999999963 1.0) // 17
                 ( 1.0 -10.0 1.0) // 18
                ( 15.0 -10.0 1.0) // 19 
        );
        
blocks																
(																
	hex	(0 1 2 3 10 11 12 13)	( 300 100 1) simpleGrading (1 1000 1)   //block	0
																													
	hex	(1 4 5 2 11 14 15 12)	( 500 100 1) simpleGrading (15 1000 1)  //block	1														
               											
	hex	(6 7 4 1 16 17 14 11)	( 500 10 1) simpleGrading (15 1 1)      //block	2
																																								
	hex	(8 9 7 6 18 19 17 16)	( 500 100 1) simpleGrading (15 0.001 1) //block	3	
	
	hex	(3 8 6 0 13 18 16 10)	( 300 100 1) simpleGrading (1 0.001 1)  //block	4								
);		

edges																
(																
	arc	2 3	(-7 7 0)									
	arc	12 13	(-7 7 1)
	arc	8 3	(-7 -7 0)									
	arc	18 13	(-7 -7 1)									
																
	spline	0 1													
	(					      

                                         ( 0.0 0.0 0 ) 
 ( 0.00024671981657042874 0.004632394409805686 0 ) 
  ( 0.0009866357836101902 0.009201196258786203 0 ) 
  ( 0.0022190176933925554 0.013704580782011288 0 ) 
    ( 0.003942649333762649 0.01814028336964345 0 ) 
   ( 0.006155829688391956 0.022505613512857518 0 ) 
   ( 0.008856374615475837 0.026797473979743004 0 ) 
   ( 0.012041619003218151 0.031012384990269964 0 ) 
   ( 0.015708419399974638 0.035146513098872775 0 ) 
     ( 0.01985315711646002 0.03919570443665267 0 ) 
     ( 0.02447174179695788 0.04315552191336883 0 ) 
   ( 0.029559615456007327 0.047021285932978746 0 ) 
    ( 0.03511175697658486 0.050788118136120115 0 ) 
     ( 0.04112268706534028 0.05445098764911471 0 ) 
    ( 0.047586473659998074 0.05800475929226514 0 ) 
     ( 0.05449673778358616 0.06144424318072676 0 ) 
     ( 0.06184665983971649 0.06476424513930581 0 ) 
     ( 0.06962898634270315 0.06795961734826804 0 ) 
     ( 0.07783603707587677 0.07102530864065547 0 ) 
     ( 0.08645971267103159 0.07395641388259466 0 ) 
       ( 0.0954915026015235 0.0767482218864286 0 ) 
     ( 0.10492249358113281 0.07939626133190504 0 ) 
     ( 0.11474337836040116 0.08189634420269004 0 ) 
     ( 0.12494446491176331 0.08424460628364251 0 ) 
     ( 0.13551568599440833 0.08643754430799457 0 ) 
      ( 0.1464466090894303 0.08847204939216695 0 ) 
      ( 0.1577264466954656 0.09034543644867808 0 ) 
     ( 0.16934406697465365 0.09205546932369629 0 ) 
     ( 0.18128800473841744 0.09360038146440881 0 ) 
      ( 0.1935464727622202 0.09497889198168437 0 ) 
      ( 0.20610737341813284 0.0961902170346148 0 ) 
      ( 0.21895831061373222 0.0972340765245596 0 ) 
       ( 0.2320866020255476 0.0981106961464164 0 ) 
     ( 0.24547929161498316 0.09882080490316171 0 ) 
      ( 0.2591231624143632 0.09936562824543321 0 ) 
       ( 0.273004749570484 0.09974687705029883 0 ) 
        ( 0.287110353632798 0.0999667327016748 0 ) 
     ( 0.30142605407311807 0.10002782857847226 0 ) 
       ( 0.315937723023497 0.09993322829491565 0 ) 
      ( 0.3306310392187286 0.09968640107010596 0 ) 
       ( 0.345491502129707 0.09929119463041443 0 ) 
       ( 0.3605044462736979 0.0987518060684017 0 ) 
        ( 0.3756550556873999 0.098072751095469 0 ) 
       ( 0.3909283785485107 0.0972588321322828 0 ) 
     ( 0.40630934193137186 0.09631510568117832 0 ) 
      ( 0.4217827666821252 0.09524684941836464 0 ) 
     ( 0.43733338239870584 0.09405952943103284 0 ) 
      ( 0.4529458425008854 0.09275876800571901 0 ) 
        ( 0.468604739375493 0.0913503123498931 0 ) 
      ( 0.4842946195818704 0.08984000459920544 0 ) 
      ( 0.4999999991025516 0.08823375342868403 0 ) 
      ( 0.5157053786241185 0.08653750754804274 0 ) 
        ( 0.5313952588331522 0.084757231319806 0 ) 
      ( 0.5470541557121839 0.08289888269489357 0 ) 
      ( 0.5626666158205507 0.08096839361437272 0 ) 
      ( 0.5782172315450762 0.07897165297904439 0 ) 
        ( 0.593690656305524 0.0769144922411494 0 ) 
      ( 0.6090716196998196 0.07480267362552101 0 ) 
      ( 0.6243449425740935 0.07264188094172662 0 ) 
      ( 0.6394955520026742 0.07043771290483634 0 ) 
      ( 0.6545084961632448 0.06819567884112689 0 ) 
      ( 0.6693689590924875 0.06592119661688231 0 ) 
      ( 0.6840622753076503 0.06361959259407576 0 ) 
      ( 0.6985739442796073 0.06129610338659205 0 ) 
      ( 0.7128896447431308 0.05895587916521479 0 ) 
     ( 0.7269952488302514 0.056603988239190606 0 ) 
     ( 0.7408768360127569 0.054245422627055395 0 ) 
      ( 0.7545207068400739 0.05188510431972629 0 ) 
      ( 0.7679133964589709 0.04952789193470764 0 ) 
      ( 0.7810416879017434 0.04717858746161098 0 ) 
      ( 0.7938926251297652 0.04484194280593515 0 ) 
     ( 0.8064535258195331 0.042522665850005005 0 ) 
     ( 0.8187119938785907 0.040225425766839976 0 ) 
       ( 0.8306559316789744 0.0379548573441589 0 ) 
      ( 0.8422735519961111 0.03571556410129132 0 ) 
       ( 0.853553389641386 0.03351212001096877 0 ) 
        ( 0.8644843127769004 0.031349069670248 0 ) 
      ( 0.8750555339012502 0.02923092679958548 0 ) 
      ( 0.8852566204954886 0.02716217098569295 0 ) 
      ( 0.8950775053187623 0.02514724262160728 0 ) 
     ( 0.9045084963434626 0.023190536035718995 0 ) 
      ( 0.9135402863200868 0.02129639083965583 0 ) 
     ( 0.9221639619623694 0.019469081562233925 0 ) 
     ( 0.9303710127436202 0.017712805672523174 0 ) 
     ( 0.9381533392955854 0.016031670128807254 0 ) 
      ( 0.9455032614015477 0.01442967662127112 0 ) 
     ( 0.9524135255757721 0.012910705704092418 0 ) 
      ( 0.9588773122218202 0.01147850003677904 0 ) 
     ( 0.9648882423626697 0.010136646974675506 0 ) 
     ( 0.9704403839359932 0.008888560764228434 0 ) 
     ( 0.9755282576483886 0.007737464609601258 0 ) 
     ( 0.9801468423827797 0.006686372883384709 0 ) 
     ( 0.9842915801536527 0.005738073755384626 0 ) 
     ( 0.9879583806052372 0.004895112509766819 0 ) 
    ( 0.9911436250481941 0.0041597758122988715 0 ) 
     ( 0.9938441700308243 0.003534077176202119 0 ) 
    ( 0.9960573504412771 0.0030197438574741664 0 ) 
     ( 0.9977809821376927 0.002618205388779507 0 ) 
    ( 0.9990133641036874 0.0023305839355241553 0 ) 
    ( 0.9997532801270506 0.0021576866290001773 0 ) 
                    ( 1.0 0.002099999999999963 0 )  
    )
    spline 10 11
    (
                                         ( 0.0 0.0 1 ) 
 ( 0.00024671981657042874 0.004632394409805686 1 ) 
  ( 0.0009866357836101902 0.009201196258786203 1 ) 
  ( 0.0022190176933925554 0.013704580782011288 1 ) 
    ( 0.003942649333762649 0.01814028336964345 1 ) 
   ( 0.006155829688391956 0.022505613512857518 1 ) 
   ( 0.008856374615475837 0.026797473979743004 1 ) 
   ( 0.012041619003218151 0.031012384990269964 1 ) 
   ( 0.015708419399974638 0.035146513098872775 1 ) 
     ( 0.01985315711646002 0.03919570443665267 1 ) 
     ( 0.02447174179695788 0.04315552191336883 1 ) 
   ( 0.029559615456007327 0.047021285932978746 1 ) 
    ( 0.03511175697658486 0.050788118136120115 1 ) 
     ( 0.04112268706534028 0.05445098764911471 1 ) 
    ( 0.047586473659998074 0.05800475929226514 1 ) 
     ( 0.05449673778358616 0.06144424318072676 1 ) 
     ( 0.06184665983971649 0.06476424513930581 1 ) 
     ( 0.06962898634270315 0.06795961734826804 1 ) 
     ( 0.07783603707587677 0.07102530864065547 1 ) 
     ( 0.08645971267103159 0.07395641388259466 1 ) 
       ( 0.0954915026015235 0.0767482218864286 1 ) 
     ( 0.10492249358113281 0.07939626133190504 1 ) 
     ( 0.11474337836040116 0.08189634420269004 1 ) 
     ( 0.12494446491176331 0.08424460628364251 1 ) 
     ( 0.13551568599440833 0.08643754430799457 1 ) 
      ( 0.1464466090894303 0.08847204939216695 1 ) 
      ( 0.1577264466954656 0.09034543644867808 1 ) 
     ( 0.16934406697465365 0.09205546932369629 1 ) 
     ( 0.18128800473841744 0.09360038146440881 1 ) 
      ( 0.1935464727622202 0.09497889198168437 1 ) 
      ( 0.20610737341813284 0.0961902170346148 1 ) 
      ( 0.21895831061373222 0.0972340765245596 1 ) 
       ( 0.2320866020255476 0.0981106961464164 1 ) 
     ( 0.24547929161498316 0.09882080490316171 1 ) 
      ( 0.2591231624143632 0.09936562824543321 1 ) 
       ( 0.273004749570484 0.09974687705029883 1 ) 
        ( 0.287110353632798 0.0999667327016748 1 ) 
     ( 0.30142605407311807 0.10002782857847226 1 ) 
       ( 0.315937723023497 0.09993322829491565 1 ) 
      ( 0.3306310392187286 0.09968640107010596 1 ) 
       ( 0.345491502129707 0.09929119463041443 1 ) 
       ( 0.3605044462736979 0.0987518060684017 1 ) 
        ( 0.3756550556873999 0.098072751095469 1 ) 
       ( 0.3909283785485107 0.0972588321322828 1 ) 
     ( 0.40630934193137186 0.09631510568117832 1 ) 
      ( 0.4217827666821252 0.09524684941836464 1 ) 
     ( 0.43733338239870584 0.09405952943103284 1 ) 
      ( 0.4529458425008854 0.09275876800571901 1 ) 
        ( 0.468604739375493 0.0913503123498931 1 ) 
      ( 0.4842946195818704 0.08984000459920544 1 ) 
      ( 0.4999999991025516 0.08823375342868403 1 ) 
      ( 0.5157053786241185 0.08653750754804274 1 ) 
        ( 0.5313952588331522 0.084757231319806 1 ) 
      ( 0.5470541557121839 0.08289888269489357 1 ) 
      ( 0.5626666158205507 0.08096839361437272 1 ) 
      ( 0.5782172315450762 0.07897165297904439 1 ) 
        ( 0.593690656305524 0.0769144922411494 1 ) 
      ( 0.6090716196998196 0.07480267362552101 1 ) 
      ( 0.6243449425740935 0.07264188094172662 1 ) 
      ( 0.6394955520026742 0.07043771290483634 1 ) 
      ( 0.6545084961632448 0.06819567884112689 1 ) 
      ( 0.6693689590924875 0.06592119661688231 1 ) 
      ( 0.6840622753076503 0.06361959259407576 1 ) 
      ( 0.6985739442796073 0.06129610338659205 1 ) 
      ( 0.7128896447431308 0.05895587916521479 1 ) 
     ( 0.7269952488302514 0.056603988239190606 1 ) 
     ( 0.7408768360127569 0.054245422627055395 1 ) 
      ( 0.7545207068400739 0.05188510431972629 1 ) 
      ( 0.7679133964589709 0.04952789193470764 1 ) 
      ( 0.7810416879017434 0.04717858746161098 1 ) 
      ( 0.7938926251297652 0.04484194280593515 1 ) 
     ( 0.8064535258195331 0.042522665850005005 1 ) 
     ( 0.8187119938785907 0.040225425766839976 1 ) 
       ( 0.8306559316789744 0.0379548573441589 1 ) 
      ( 0.8422735519961111 0.03571556410129132 1 ) 
       ( 0.853553389641386 0.03351212001096877 1 ) 
        ( 0.8644843127769004 0.031349069670248 1 ) 
      ( 0.8750555339012502 0.02923092679958548 1 ) 
      ( 0.8852566204954886 0.02716217098569295 1 ) 
      ( 0.8950775053187623 0.02514724262160728 1 ) 
     ( 0.9045084963434626 0.023190536035718995 1 ) 
      ( 0.9135402863200868 0.02129639083965583 1 ) 
     ( 0.9221639619623694 0.019469081562233925 1 ) 
     ( 0.9303710127436202 0.017712805672523174 1 ) 
     ( 0.9381533392955854 0.016031670128807254 1 ) 
      ( 0.9455032614015477 0.01442967662127112 1 ) 
     ( 0.9524135255757721 0.012910705704092418 1 ) 
      ( 0.9588773122218202 0.01147850003677904 1 ) 
     ( 0.9648882423626697 0.010136646974675506 1 ) 
     ( 0.9704403839359932 0.008888560764228434 1 ) 
     ( 0.9755282576483886 0.007737464609601258 1 ) 
     ( 0.9801468423827797 0.006686372883384709 1 ) 
     ( 0.9842915801536527 0.005738073755384626 1 ) 
     ( 0.9879583806052372 0.004895112509766819 1 ) 
    ( 0.9911436250481941 0.0041597758122988715 1 ) 
     ( 0.9938441700308243 0.003534077176202119 1 ) 
    ( 0.9960573504412771 0.0030197438574741664 1 ) 
     ( 0.9977809821376927 0.002618205388779507 1 ) 
    ( 0.9990133641036874 0.0023305839355241553 1 ) 
    ( 0.9997532801270506 0.0021576866290001773 1 ) 
                    ( 1.0 0.002099999999999963 1 )  
	)																																																													
	spline	0	6													
	(
                                         ( 0.0 -0.0 0 ) 
 ( 0.00024671981657042874 -0.004632394409805686 0 ) 
  ( 0.0009866357836101902 -0.009201196258786203 0 ) 
  ( 0.0022190176933925554 -0.013704580782011288 0 ) 
    ( 0.003942649333762649 -0.01814028336964345 0 ) 
   ( 0.006155829688391956 -0.022505613512857518 0 ) 
   ( 0.008856374615475837 -0.026797473979743004 0 ) 
   ( 0.012041619003218151 -0.031012384990269964 0 ) 
   ( 0.015708419399974638 -0.035146513098872775 0 ) 
     ( 0.01985315711646002 -0.03919570443665267 0 ) 
     ( 0.02447174179695788 -0.04315552191336883 0 ) 
   ( 0.029559615456007327 -0.047021285932978746 0 ) 
    ( 0.03511175697658486 -0.050788118136120115 0 ) 
     ( 0.04112268706534028 -0.05445098764911471 0 ) 
    ( 0.047586473659998074 -0.05800475929226514 0 ) 
     ( 0.05449673778358616 -0.06144424318072676 0 ) 
     ( 0.06184665983971649 -0.06476424513930581 0 ) 
     ( 0.06962898634270315 -0.06795961734826804 0 ) 
     ( 0.07783603707587677 -0.07102530864065547 0 ) 
     ( 0.08645971267103159 -0.07395641388259466 0 ) 
       ( 0.0954915026015235 -0.0767482218864286 0 ) 
     ( 0.10492249358113281 -0.07939626133190504 0 ) 
     ( 0.11474337836040116 -0.08189634420269004 0 ) 
     ( 0.12494446491176331 -0.08424460628364251 0 ) 
     ( 0.13551568599440833 -0.08643754430799457 0 ) 
      ( 0.1464466090894303 -0.08847204939216695 0 ) 
      ( 0.1577264466954656 -0.09034543644867808 0 ) 
     ( 0.16934406697465365 -0.09205546932369629 0 ) 
     ( 0.18128800473841744 -0.09360038146440881 0 ) 
      ( 0.1935464727622202 -0.09497889198168437 0 ) 
      ( 0.20610737341813284 -0.0961902170346148 0 ) 
      ( 0.21895831061373222 -0.0972340765245596 0 ) 
       ( 0.2320866020255476 -0.0981106961464164 0 ) 
     ( 0.24547929161498316 -0.09882080490316171 0 ) 
      ( 0.2591231624143632 -0.09936562824543321 0 ) 
       ( 0.273004749570484 -0.09974687705029883 0 ) 
        ( 0.287110353632798 -0.0999667327016748 0 ) 
     ( 0.30142605407311807 -0.10002782857847226 0 ) 
       ( 0.315937723023497 -0.09993322829491565 0 ) 
      ( 0.3306310392187286 -0.09968640107010596 0 ) 
       ( 0.345491502129707 -0.09929119463041443 0 ) 
       ( 0.3605044462736979 -0.0987518060684017 0 ) 
        ( 0.3756550556873999 -0.098072751095469 0 ) 
       ( 0.3909283785485107 -0.0972588321322828 0 ) 
     ( 0.40630934193137186 -0.09631510568117832 0 ) 
      ( 0.4217827666821252 -0.09524684941836464 0 ) 
     ( 0.43733338239870584 -0.09405952943103284 0 ) 
      ( 0.4529458425008854 -0.09275876800571901 0 ) 
        ( 0.468604739375493 -0.0913503123498931 0 ) 
      ( 0.4842946195818704 -0.08984000459920544 0 ) 
      ( 0.4999999991025516 -0.08823375342868403 0 ) 
      ( 0.5157053786241185 -0.08653750754804274 0 ) 
        ( 0.5313952588331522 -0.084757231319806 0 ) 
      ( 0.5470541557121839 -0.08289888269489357 0 ) 
      ( 0.5626666158205507 -0.08096839361437272 0 ) 
      ( 0.5782172315450762 -0.07897165297904439 0 ) 
        ( 0.593690656305524 -0.0769144922411494 0 ) 
      ( 0.6090716196998196 -0.07480267362552101 0 ) 
      ( 0.6243449425740935 -0.07264188094172662 0 ) 
      ( 0.6394955520026742 -0.07043771290483634 0 ) 
      ( 0.6545084961632448 -0.06819567884112689 0 ) 
      ( 0.6693689590924875 -0.06592119661688231 0 ) 
      ( 0.6840622753076503 -0.06361959259407576 0 ) 
      ( 0.6985739442796073 -0.06129610338659205 0 ) 
      ( 0.7128896447431308 -0.05895587916521479 0 ) 
     ( 0.7269952488302514 -0.056603988239190606 0 ) 
     ( 0.7408768360127569 -0.054245422627055395 0 ) 
      ( 0.7545207068400739 -0.05188510431972629 0 ) 
      ( 0.7679133964589709 -0.04952789193470764 0 ) 
      ( 0.7810416879017434 -0.04717858746161098 0 ) 
      ( 0.7938926251297652 -0.04484194280593515 0 ) 
     ( 0.8064535258195331 -0.042522665850005005 0 ) 
     ( 0.8187119938785907 -0.040225425766839976 0 ) 
       ( 0.8306559316789744 -0.0379548573441589 0 ) 
      ( 0.8422735519961111 -0.03571556410129132 0 ) 
       ( 0.853553389641386 -0.03351212001096877 0 ) 
        ( 0.8644843127769004 -0.031349069670248 0 ) 
      ( 0.8750555339012502 -0.02923092679958548 0 ) 
      ( 0.8852566204954886 -0.02716217098569295 0 ) 
      ( 0.8950775053187623 -0.02514724262160728 0 ) 
     ( 0.9045084963434626 -0.023190536035718995 0 ) 
      ( 0.9135402863200868 -0.02129639083965583 0 ) 
     ( 0.9221639619623694 -0.019469081562233925 0 ) 
     ( 0.9303710127436202 -0.017712805672523174 0 ) 
     ( 0.9381533392955854 -0.016031670128807254 0 ) 
      ( 0.9455032614015477 -0.01442967662127112 0 ) 
     ( 0.9524135255757721 -0.012910705704092418 0 ) 
      ( 0.9588773122218202 -0.01147850003677904 0 ) 
     ( 0.9648882423626697 -0.010136646974675506 0 ) 
     ( 0.9704403839359932 -0.008888560764228434 0 ) 
     ( 0.9755282576483886 -0.007737464609601258 0 ) 
     ( 0.9801468423827797 -0.006686372883384709 0 ) 
     ( 0.9842915801536527 -0.005738073755384626 0 ) 
     ( 0.9879583806052372 -0.004895112509766819 0 ) 
    ( 0.9911436250481941 -0.0041597758122988715 0 ) 
     ( 0.9938441700308243 -0.003534077176202119 0 ) 
    ( 0.9960573504412771 -0.0030197438574741664 0 ) 
     ( 0.9977809821376927 -0.002618205388779507 0 ) 
    ( 0.9990133641036874 -0.0023305839355241553 0 ) 
    ( 0.9997532801270506 -0.0021576866290001773 0 ) 
                    ( 1.0 -0.002099999999999963 0 )  
    )
    spline 10 16
    (
                                         ( 0.0 -0.0 1 ) 
 ( 0.00024671981657042874 -0.004632394409805686 1 ) 
  ( 0.0009866357836101902 -0.009201196258786203 1 ) 
  ( 0.0022190176933925554 -0.013704580782011288 1 ) 
    ( 0.003942649333762649 -0.01814028336964345 1 ) 
   ( 0.006155829688391956 -0.022505613512857518 1 ) 
   ( 0.008856374615475837 -0.026797473979743004 1 ) 
   ( 0.012041619003218151 -0.031012384990269964 1 ) 
   ( 0.015708419399974638 -0.035146513098872775 1 ) 
     ( 0.01985315711646002 -0.03919570443665267 1 ) 
     ( 0.02447174179695788 -0.04315552191336883 1 ) 
   ( 0.029559615456007327 -0.047021285932978746 1 ) 
    ( 0.03511175697658486 -0.050788118136120115 1 ) 
     ( 0.04112268706534028 -0.05445098764911471 1 ) 
    ( 0.047586473659998074 -0.05800475929226514 1 ) 
     ( 0.05449673778358616 -0.06144424318072676 1 ) 
     ( 0.06184665983971649 -0.06476424513930581 1 ) 
     ( 0.06962898634270315 -0.06795961734826804 1 ) 
     ( 0.07783603707587677 -0.07102530864065547 1 ) 
     ( 0.08645971267103159 -0.07395641388259466 1 ) 
       ( 0.0954915026015235 -0.0767482218864286 1 ) 
     ( 0.10492249358113281 -0.07939626133190504 1 ) 
     ( 0.11474337836040116 -0.08189634420269004 1 ) 
     ( 0.12494446491176331 -0.08424460628364251 1 ) 
     ( 0.13551568599440833 -0.08643754430799457 1 ) 
      ( 0.1464466090894303 -0.08847204939216695 1 ) 
      ( 0.1577264466954656 -0.09034543644867808 1 ) 
     ( 0.16934406697465365 -0.09205546932369629 1 ) 
     ( 0.18128800473841744 -0.09360038146440881 1 ) 
      ( 0.1935464727622202 -0.09497889198168437 1 ) 
      ( 0.20610737341813284 -0.0961902170346148 1 ) 
      ( 0.21895831061373222 -0.0972340765245596 1 ) 
       ( 0.2320866020255476 -0.0981106961464164 1 ) 
     ( 0.24547929161498316 -0.09882080490316171 1 ) 
      ( 0.2591231624143632 -0.09936562824543321 1 ) 
       ( 0.273004749570484 -0.09974687705029883 1 ) 
        ( 0.287110353632798 -0.0999667327016748 1 ) 
     ( 0.30142605407311807 -0.10002782857847226 1 ) 
       ( 0.315937723023497 -0.09993322829491565 1 ) 
      ( 0.3306310392187286 -0.09968640107010596 1 ) 
       ( 0.345491502129707 -0.09929119463041443 1 ) 
       ( 0.3605044462736979 -0.0987518060684017 1 ) 
        ( 0.3756550556873999 -0.098072751095469 1 ) 
       ( 0.3909283785485107 -0.0972588321322828 1 ) 
     ( 0.40630934193137186 -0.09631510568117832 1 ) 
      ( 0.4217827666821252 -0.09524684941836464 1 ) 
     ( 0.43733338239870584 -0.09405952943103284 1 ) 
      ( 0.4529458425008854 -0.09275876800571901 1 ) 
        ( 0.468604739375493 -0.0913503123498931 1 ) 
      ( 0.4842946195818704 -0.08984000459920544 1 ) 
      ( 0.4999999991025516 -0.08823375342868403 1 ) 
      ( 0.5157053786241185 -0.08653750754804274 1 ) 
        ( 0.5313952588331522 -0.084757231319806 1 ) 
      ( 0.5470541557121839 -0.08289888269489357 1 ) 
      ( 0.5626666158205507 -0.08096839361437272 1 ) 
      ( 0.5782172315450762 -0.07897165297904439 1 ) 
        ( 0.593690656305524 -0.0769144922411494 1 ) 
      ( 0.6090716196998196 -0.07480267362552101 1 ) 
      ( 0.6243449425740935 -0.07264188094172662 1 ) 
      ( 0.6394955520026742 -0.07043771290483634 1 ) 
      ( 0.6545084961632448 -0.06819567884112689 1 ) 
      ( 0.6693689590924875 -0.06592119661688231 1 ) 
      ( 0.6840622753076503 -0.06361959259407576 1 ) 
      ( 0.6985739442796073 -0.06129610338659205 1 ) 
      ( 0.7128896447431308 -0.05895587916521479 1 ) 
     ( 0.7269952488302514 -0.056603988239190606 1 ) 
     ( 0.7408768360127569 -0.054245422627055395 1 ) 
      ( 0.7545207068400739 -0.05188510431972629 1 ) 
      ( 0.7679133964589709 -0.04952789193470764 1 ) 
      ( 0.7810416879017434 -0.04717858746161098 1 ) 
      ( 0.7938926251297652 -0.04484194280593515 1 ) 
     ( 0.8064535258195331 -0.042522665850005005 1 ) 
     ( 0.8187119938785907 -0.040225425766839976 1 ) 
       ( 0.8306559316789744 -0.0379548573441589 1 ) 
      ( 0.8422735519961111 -0.03571556410129132 1 ) 
       ( 0.853553389641386 -0.03351212001096877 1 ) 
        ( 0.8644843127769004 -0.031349069670248 1 ) 
      ( 0.8750555339012502 -0.02923092679958548 1 ) 
      ( 0.8852566204954886 -0.02716217098569295 1 ) 
      ( 0.8950775053187623 -0.02514724262160728 1 ) 
     ( 0.9045084963434626 -0.023190536035718995 1 ) 
      ( 0.9135402863200868 -0.02129639083965583 1 ) 
     ( 0.9221639619623694 -0.019469081562233925 1 ) 
     ( 0.9303710127436202 -0.017712805672523174 1 ) 
     ( 0.9381533392955854 -0.016031670128807254 1 ) 
      ( 0.9455032614015477 -0.01442967662127112 1 ) 
     ( 0.9524135255757721 -0.012910705704092418 1 ) 
      ( 0.9588773122218202 -0.01147850003677904 1 ) 
     ( 0.9648882423626697 -0.010136646974675506 1 ) 
     ( 0.9704403839359932 -0.008888560764228434 1 ) 
     ( 0.9755282576483886 -0.007737464609601258 1 ) 
     ( 0.9801468423827797 -0.006686372883384709 1 ) 
     ( 0.9842915801536527 -0.005738073755384626 1 ) 
     ( 0.9879583806052372 -0.004895112509766819 1 ) 
    ( 0.9911436250481941 -0.0041597758122988715 1 ) 
     ( 0.9938441700308243 -0.003534077176202119 1 ) 
    ( 0.9960573504412771 -0.0030197438574741664 1 ) 
     ( 0.9977809821376927 -0.002618205388779507 1 ) 
    ( 0.9990133641036874 -0.0023305839355241553 1 ) 
    ( 0.9997532801270506 -0.0021576866290001773 1 ) 
                    ( 1.0 -0.002099999999999963 1 )  
							
    )															
                                                                    
                                                                    
    );																
                                                                    
    faces																
    (																
                                                                    
    );																
                                                                    
    faces																
    (																
                                                                    
    );																
                                                                    
                                                                    
    defaultPatch																
    {																
        name frontAndBack;																
        type empty;																
    }		
                                                                                                                                
    boundary																
    (																
        inlet              																
            {																
            type patch;    																
            faces																
            (																
                (3 13 12 2)
                (8 18 13 3)
                (5 2 12 15)
                (8 9 19 18)															
            );																
            } 
        outlet              																
            {																
            type patch;    																
            faces																
            (																
                (4 5 15 14)
                (7 4 14 17)
                (7 17 19 9)  															
            );																
            }	

        foil              																
            {																
            type wall;    																
            faces																
            (																
                (0 1 11 10)
                (0 6 16 10)
                (6 1 11 16)															
            );																
            }	
                                                                
                                                                        
    );	
    // ************************************************************************* //																
                                                                    			               	
    