/*--------------------------------*- C++ -*----------------------------------*\
| =========                 |                                                 |
| \\      /  F ield         | OpenFOAM: The Open Source CFD Toolbox           |
|  \\    /   O peration     | Version:  2212                                  |
|   \\  /    A nd           | Website:  www.openfoam.com                      |
|    \\/     M anipulation  |                                                 |
\*---------------------------------------------------------------------------*/
FoamFile
{
    version     2.0;
    format      ascii;
    arch        "LSB;label=32;scalar=64";
    class       polyBoundaryMesh;
    location    "constant/polyMesh";
    object      boundary;
}
// * * * * * * * * * * * * * * * * * * * * * * * * * * * * * * * * * * * * * //

5
(
    inlet
    {
        type            patch;
        nFaces          804;
        startFace       164266;
    }
    outlet
    {
        type            patch;
        nFaces          210;
        startFace       165070;
    }
    foil
    {
        type            wall;
        inGroups        1(wall);
        nFaces          0;
        startFace       165280;
    }
    frontAndBack
    {
        type            empty;
        inGroups        1(empty);
        nFaces          164920;
        startFace       165280;
    }
    procBoundary1to0
    {
        type            processor;
        inGroups        1(processor);
        nFaces          294;
        startFace       330200;
        matchTolerance  0.0001;
        transform       unknown;
        myProcNo        1;
        neighbProcNo    0;
    }
)

// ************************************************************************* //
