/*--------------------------------*- C++ -*----------------------------------*\
| =========                 |                                                 |
| \\      /  F ield         | OpenFOAM: The Open Source CFD Toolbox           |
|  \\    /   O peration     | Version:  2212                                  |
|   \\  /    A nd           | Website:  www.openfoam.com                      |
|    \\/     M anipulation  |                                                 |
\*---------------------------------------------------------------------------*/
FoamFile
{
    version     2.0;
    format      ascii;
    arch        "LSB;label=32;scalar=64";
    class       polyBoundaryMesh;
    location    "constant/polyMesh";
    object      boundary;
}
// * * * * * * * * * * * * * * * * * * * * * * * * * * * * * * * * * * * * * //

7
(
    inlet
    {
        type            patch;
        nFaces          0;
        startFace       259770;
    }
    outlet
    {
        type            patch;
        nFaces          300;
        startFace       259770;
    }
    sides
    {
        type            wall;
        inGroups        1(wall);
        nFaces          392;
        startFace       260070;
    }
    foil
    {
        type            wall;
        inGroups        1(wall);
        nFaces          94;
        startFace       260462;
    }
    frontAndBack
    {
        type            empty;
        inGroups        1(empty);
        nFaces          260474;
        startFace       260556;
    }
    procBoundary1to0
    {
        type            processor;
        inGroups        1(processor);
        nFaces          412;
        startFace       521030;
        matchTolerance  0.0001;
        transform       unknown;
        myProcNo        1;
        neighbProcNo    0;
    }
    procBoundary1to3
    {
        type            processor;
        inGroups        1(processor);
        nFaces          486;
        startFace       521442;
        matchTolerance  0.0001;
        transform       unknown;
        myProcNo        1;
        neighbProcNo    3;
    }
)

// ************************************************************************* //
