/*--------------------------------*- C++ -*----------------------------------*\
| =========                 |                                                 |
| \\      /  F ield         | OpenFOAM: The Open Source CFD Toolbox           |
|  \\    /   O peration     | Version:  2212                                  |
|   \\  /    A nd           | Website:  www.openfoam.com                      |
|    \\/     M anipulation  |                                                 |
\*---------------------------------------------------------------------------*/
FoamFile
{
    version     2.0;
    format      ascii;
    arch        "LSB;label=32;scalar=64";
    class       polyBoundaryMesh;
    location    "constant/polyMesh";
    object      boundary;
}
// * * * * * * * * * * * * * * * * * * * * * * * * * * * * * * * * * * * * * //

7
(
    inlet
    {
        type            patch;
        nFaces          598;
        startFace       260178;
    }
    outlet
    {
        type            patch;
        nFaces          0;
        startFace       260776;
    }
    sides
    {
        type            wall;
        inGroups        1(wall);
        nFaces          8;
        startFace       260776;
    }
    foil
    {
        type            wall;
        inGroups        1(wall);
        nFaces          665;
        startFace       260784;
    }
    frontAndBack
    {
        type            empty;
        inGroups        1(empty);
        nFaces          260812;
        startFace       261449;
    }
    procBoundary0to1
    {
        type            processor;
        inGroups        1(processor);
        nFaces          412;
        startFace       522261;
        matchTolerance  0.0001;
        transform       unknown;
        myProcNo        0;
        neighbProcNo    1;
    }
    procBoundary0to2
    {
        type            processor;
        inGroups        1(processor);
        nFaces          388;
        startFace       522673;
        matchTolerance  0.0001;
        transform       unknown;
        myProcNo        0;
        neighbProcNo    2;
    }
)

// ************************************************************************* //
