/*--------------------------------*- C++ -*----------------------------------*\
| =========                 |                                                 |
| \\      /  F ield         | OpenFOAM: The Open Source CFD Toolbox           |
|  \\    /   O peration     | Version:  2212                                  |
|   \\  /    A nd           | Website:  www.openfoam.com                      |
|    \\/     M anipulation  |                                                 |
\*---------------------------------------------------------------------------*/
FoamFile
{
    version     2.0;
    format      ascii;
    arch        "LSB;label=32;scalar=64";
    class       polyBoundaryMesh;
    location    "constant/polyMesh";
    object      boundary;
}
// * * * * * * * * * * * * * * * * * * * * * * * * * * * * * * * * * * * * * //

5
(
    inlet
    {
        type            patch;
        nFaces          796;
        startFace       164230;
    }
    outlet
    {
        type            patch;
        nFaces          0;
        startFace       165026;
    }
    foil
    {
        type            wall;
        inGroups        1(wall);
        nFaces          610;
        startFace       165026;
    }
    frontAndBack
    {
        type            empty;
        inGroups        1(empty);
        nFaces          165080;
        startFace       165636;
    }
    procBoundary0to1
    {
        type            processor;
        inGroups        1(processor);
        nFaces          294;
        startFace       330716;
        matchTolerance  0.0001;
        transform       unknown;
        myProcNo        0;
        neighbProcNo    1;
    }
)

// ************************************************************************* //
